/*--------------------------------*- C++ -*----------------------------------*\
| =========                 |                                                 |
| \\      /  F ield         | OpenFOAM: The Open Source CFD Toolbox           |
|  \\    /   O peration     | Version:  2.1.x                                 |
|   \\  /    A nd           | Web:      www.OpenFOAM.org                      |
|    \\/     M anipulation  |                                                 |
\*---------------------------------------------------------------------------*/
FoamFile
{
    version     2.0;
    format      ascii;
    class       dictionary;
    location    "constant";
    object      thermophysicalProperties;
}
// * * * * * * * * * * * * * * * * * * * * * * * * * * * * * * * * * * * * * //

thermoType hsTwophaseMixtureThermo<reactingMixture<gasThermoPhysics>>;

chemistryReader foamChemistryReader;

foamChemistryFile "$FOAM_CASE/constant/reactions";

foamChemistryThermoFile "$FOAM_CASE/constant/thermo";

// Phase volume fraction tolerance for diffusion mask
phaseMaskTol 0.01;

Vapor
{
   SchmidtNo  0.9;
   
   subspecies
   (
       CH3NHNH2 {}
       NO2      {}
       N2O4     {}
       N2       {}
   );
   
   phaseChangeReactions
   (
   );
}



Liquid
{
   SchmidtNo  0.9;
   
   subspecies
   (
        CH3NHNH2L
        {
            transportModel  Newtonian;
            nu              nu [ 0 2 -1 0 0 0 0 ] 9.2e-7; //rocketdyne
   
            rho0         rho0 [ 1 -3 0 0 0 0 0 ] 870.0;
            Tc           Tc   [ 0 0 0 1 0 0 0] 585.0;
            kappa        kappa [1 1 -3 -1 0 0 0] 0.25; //mmh bible, 300 K 
            
            sigma0          sigma0 [ 1 0 -2 0 0 0 0] 0.0626;
            sigmaa          0.884;
               
        }
        
        N2O4L
        {
            transportModel  Newtonian;
            nu              nu [ 0 2 -1 0 0 0 0 ] 2.9e-7; //rocketdyne
            
            rho0      rho0 [ 1 -3 0 0 0 0 0 ] 1447.0;
            Tc        Tc   [ 0 0 0 1 0 0 0] 431.35;
            kappa        kappa [1 1 -3 -1 0 0 0] 0.123; //doi:10.1063/1.1726692 
              
            sigma0          sigma0 [ 1 0 -2 0 0 0 0] 0.0620;
            sigmaa          0.745;
         }
         
         MMHNTOL //averaged properties of MMH and NTO
         {
            transportModel  Newtonian;
            nu              nu [ 0 2 -1 0 0 0 0 ] 6e-07;
            
            rho0      rho0  [ 1 -3  0  0 0 0 0] 1160.0;
            Tc        Tc    [ 0  0  0  1 0 0 0] 510;
            kappa     kappa [ 1  1 -3 -1 0 0 0] 0.19; 
              
            sigma0          sigma0 [ 1 0 -2 0 0 0 0] 0.0620;
            sigmaa          0.8;
         }
   );
}



phaseChangeReactions
(
   MMHEvap
   {
        phaseChangeModel LangmuirEvaporation;
        
        liquidSpecies
        (
            CH3NHNH2L   1.0
        );
        
        gasSpecies
        (
            CH3NHNH2   1.0
        );
        
        LangmuirEvaporationCoeffs
        {
            Lb              Lb [ 1 2 -2 0 -1 0 0] 38884000.0;
            Tb              Tb [ 0 0 0 1 0 0 0] 360.476;
            La              0.38;
            betaM           0.6;

            Tc              Tc [ 0 0 0 1 0 0 0] 585.0;
            Pc              Pc [ 1 -1 -2 0 0 0 0] 8210000.0;
            PvCoeffs        (9.1834 1943.89 492587.8);
        }
    }
    
    
    NTOEvap
    {
        phaseChangeModel LangmuirEvaporation;
        
        liquidSpecies
        (
            N2O4L   1.0
        );
        
        gasSpecies
        (
            N2O4   1.0
        );
        
        LangmuirEvaporationCoeffs
        {
            Lb              Lb [ 1 2 -2 0 -1 0 0] 33888000.0;
            Tb              Tb [ 0 0 0 1 0 0 0] 294.285;
            La              0.38;
            betaM           0.6;

            Tc              Tc [ 0 0 0 1 0 0 0] 431.35;
            Pc              Pc [ 1 -1 -2 0 0 0 0] 10100000.0;
            PvCoeffs        (16.1 5400.115 -194831.8);
        }
    }
    
    
    /*LiquidReaction
    {
        phaseChangeModel   PhaseChangeReaction;
        
        liquidSpecies
        (
            CH3NHNH2L   1.0
            HNO3L       3.0
        );
        
        gasSpecies
        (
            CH3ONO2
            N2O
            H2O
            N2
        );
        
        PhaseChangeReactionCoeffs
        {
            keySpecie   HNO3L;
        }
    }*/
    
);




// ************************************************************************* //
