/*--------------------------------*- C++ -*----------------------------------*\
| =========                 |                                                 |
| \\      /  F ield         | OpenFOAM: The Open Source CFD Toolbox           |
|  \\    /   O peration     | Version:  2.1.x                                 |
|   \\  /    A nd           | Web:      www.OpenFOAM.org                      |
|    \\/     M anipulation  |                                                 |
\*---------------------------------------------------------------------------*/
FoamFile
{
    version     2.0;
    format      ascii;
    class       dictionary;
    location    "constant";
    object      thermophysicalProperties;
}
// * * * * * * * * * * * * * * * * * * * * * * * * * * * * * * * * * * * * * //

thermoType hsTwophaseMixtureThermo<reactingMixture<gasThermoPhysics>>;

chemistryReader foamChemistryReader;

foamChemistryFile "$FOAM_CASE/constant/reactions";

foamChemistryThermoFile "$FOAM_CASE/constant/thermo";

// Phase volume fraction tolerance for diffusion mask
phaseMaskTol 0.01;

Vapor
{
   SchmidtNo  0.9;
   
   subspecies
   (
        CH3NHNH2     {}
        CH3NNH2      {}
        CH3NNH       {}
        CH3NN        {}
        CH3O         {}
        CH3ONO2      {}
        CH3          {}
        NO2          {}
        HONO         {}
        HNO3         {}
        H2O          {}
        O2           {}
        N2           {}
   );
}



Liquid
{
   SchmidtNo  0.9;
   
   subspecies
   (
        CH3NHNH2L
        {
            transportModel  Newtonian;
            nu              nu [ 0 2 -1 0 0 0 0 ] 9.2e-7; //rocketdyne
   
            rho0         rho0 [ 1 -3 0 0 0 0 0 ] 870.0;
            Tc           Tc   [ 0 0 0 1 0 0 0] 585.0;
            kappa        kappa [1 1 -3 -1 0 0 0] 0.25; //mmh bible, 300 K 
            
            sigma0          sigma0 [ 1 0 -2 0 0 0 0] 0.0626;
            sigmaa          0.884;
               
        }
        
        NO2L
        {
            transportModel  Newtonian;
            nu              nu [ 0 2 -1 0 0 0 0 ] 6.5e-7;
            
            rho0      rho0 [ 1 -3 0 0 0 0 0 ] 1447.0;
            Tc        Tc   [ 0 0 0 1 0 0 0] 431.35;
            kappa        kappa [1 1 -3 -1 0 0 0] 0.28;
              
            sigma0          sigma0 [ 1 0 -2 0 0 0 0] 0.062;
            sigmaa          0.745;
              
        }
        
        HNO3L
        {
            transportModel  Newtonian;
            nu              nu [ 0 2 -1 0 0 0 0 ] 6.5e-7;
            
            rho0      rho0 [ 1 -3 0 0 0 0 0 ] 1550.0;
            Tc        Tc   [ 0 0 0 1 0 0 0] 546.5;
            kappa        kappa [1 1 -3 -1 0 0 0] 0.28;
              
            sigma0          sigma0 [ 1 0 -2 0 0 0 0] 0.0887;
            sigmaa          1;
              
        }
   );
}



phaseChangeReactions
(

    MMHEvap
    {
        phaseChangeModel LangmuirEvaporation;
        
        liquidSpecies
        (
            CH3NHNH2L   1.0
        );
        
        gasSpecies
        (
            CH3NHNH2   1.0
        );
        
        LangmuirEvaporationCoeffs
        {
            Lb              Lb [ 1 2 -2 0 -1 0 0] 38884000.0;
            Tb              Tb [ 0 0 0 1 0 0 0] 360.476;
            La              0.38;
            betaM           0.6;

            Tc              Tc [ 0 0 0 1 0 0 0] 585.0;
            Pc              Pc [ 1 -1 -2 0 0 0 0] 8210000.0;
            PvCoeffs        (9.1834 1943.89 492587.8);
        }
    }
        
        
    NAEvap
    {
        phaseChangeModel LangmuirEvaporation;
        
        liquidSpecies
        (
            HNO3L   1.0
        );
        
        gasSpecies
        (
            HNO3   1.0
        );
        
        LangmuirEvaporationCoeffs
        {
            Lb              Lb [ 1 2 -2 0 -1 0 0] 38094729.0;
            Tb              Tb [ 0 0 0 1 0 0 0] 360.8;
            La              0.38;
            betaM           0.6;

            Tc              Tc [ 0 0 0 1 0 0 0] 546.48;
            Pc              Pc [ 1 -1 -2 0 0 0 0] 9535000.0;
            PvCoeffs        (14.922185 6186.610617 -289492.595);
        }
    }
    
    NO2Evap
    {
        phaseChangeModel LangmuirEvaporation;
        
        liquidSpecies
        (
            NO2L   1.0
        );
        
        gasSpecies
        (
            NO2   1.0
        );
        
        LangmuirEvaporationCoeffs
        {
            Lb              Lb [ 1 2 -2 0 -1 0 0] 33709918.0;
            Tb              Tb [ 0 0 0 1 0 0 0] 294;
            La              0.38;
            betaM           0.6;

            Tc              Tc [ 0 0 0 1 0 0 0] 431.35;
            Pc              Pc [ 1 -1 -2 0 0 0 0] 10100000.0;
            PvCoeffs        (16.046357 5374.83122 -193954.549332);
        }
    }
    
    //simply including this then accounts for all liquid-gas reactions in the
    // chemistry set. no arguments are needed other than the model type
    LiquidReaction
    {
        phaseChangeModel   PhaseChangeReaction;
        
        liquidSpecies
        (
        );
        
        gasSpecies
        (
        );
        
        PhaseChangeReactionCoeffs
        {
        }
    }
    
);




// ************************************************************************* //
