/*--------------------------------*- C++ -*----------------------------------*\
| =========                 |                                                 |
| \\      /  F ield         | OpenFOAM: The Open Source CFD Toolbox           |
|  \\    /   O peration     | Version:  2.1.x                                 |
|   \\  /    A nd           | Web:      www.OpenFOAM.org                      |
|    \\/     M anipulation  |                                                 |
\*---------------------------------------------------------------------------*/
FoamFile
{
    version     2.0;
    format      ascii;
    class       dictionary;
    location    "system";
    object      VOFSetFieldsDict;
}
// * * * * * * * * * * * * * * * * * * * * * * * * * * * * * * * * * * * * * //

defaultSpecies
(
);

vaporPhaseName   alpha1;

shapes
(
    DropMMH
    {
        alphaName  alpha2;
        
        shape    ellipsoid;
        
        ellipsoidCoeffs
        {
            center   (0 0 0.0012);
            radius   (0.001 0.001 0.001);
        }
        
        delVapor 3e-4;
        U        (0 0 -0.5);
        
        liquidSpecies
        (
        );
        
        vaporSpecies
        (
        );
    }
    
    DropNTO
    {
        alphaName  alpha3;
        
        shape    ellipsoid;
                
        ellipsoidCoeffs
        {
            center   (0 0 -0.0012);
            radius   (0.001 0.001 0.001);
        }
        
        delVapor 3e-4;
        U        (0 0 0.5);
        
        liquidSpecies
        (
        );
        
        vaporSpecies
        (
        );
    }

);


// ************************************************************************* //
