THERMO ALL
   200.000  1000.000  5000.000
NO2               L 7/88N   1O   2          G   200.000  6000.000  1000.000    1
 0.48847542E+01 0.21723956E-02-0.82806906E-06 0.15747510E-09-0.10510895E-13    2
 0.23164983E+04-0.11741695E+00 0.39440312E+01-0.15854290E-02 0.16657812E-04    3
-0.20475426E-07 0.78350564E-11 0.28966179E+04 0.63119917E+01                   4
N2O4              121286N   2O   4          G  0200.00   5000.00  1000.00      1
 0.10482201E+02 0.05972272E-01-0.02564043E-04 0.04916885E-08-0.03490969E-12    2
-0.02849988E+05-0.02612289E+03 0.03624592E+02 0.02474708E+00-0.02172874E-03    3
 0.09927103E-07-0.02222817E-10-0.09128241E+04 0.09457174E+02                   4
END

