/*--------------------------------*- C++ -*----------------------------------*\
| =========                 |                                                 |
| \\      /  F ield         | OpenFOAM: The Open Source CFD Toolbox           |
|  \\    /   O peration     | Version:  2.1.x                                 |
|   \\  /    A nd           | Web:      www.OpenFOAM.org                      |
|    \\/     M anipulation  |                                                 |
\*---------------------------------------------------------------------------*/
FoamFile
{
    version     2.0;
    format      ascii;
    class       dictionary;
    location    "constant";
    object      thermophysicalProperties;
}
// * * * * * * * * * * * * * * * * * * * * * * * * * * * * * * * * * * * * * //

thermoType hsTwophaseMixtureThermo<reactingMixture<gasThermoPhysics>>;

chemistryReader foamChemistryReader;

foamChemistryFile "$FOAM_CASE/constant/reactions";

foamChemistryThermoFile "$FOAM_CASE/constant/thermo";

// Phase volume fraction tolerance for diffusion mask
phaseMaskTol 0.01;

Vapor
{
   SchmidtNo  0.9;
   
   subspecies
   (
       N2 {}
       H2O {}
   );
}



Liquid
{
   SchmidtNo  200.0;
   
   subspecies
   (
        H2OL
        {
            transportModel  Newtonian;
            nu              nu [ 0 2 -1 0 0 0 0 ] 1e-6;
   
            rho0         rho0 [ 1 -3 0 0 0 0 0 ] 1000.0;
            Tc           Tc   [ 0 0 0 1 0 0 0]   647.1;
            kappa        kappa [1 1 -3 -1 0 0 0] 0.68;
            
            sigma0       sigma0 [ 1 0 -2 0 0 0 0] 0.07;//7; //13;
            sigmaa       0.0;

        }
   );
}


phaseChangeReactions
(    
    H2OEvap
    {
        phaseChangeModel LangmuirEvaporation;
        
        liquidSpecies
        (
            H2OL   1.0
        );
        
        gasSpecies
        (
            H2O   1.0
        );
        
        LangmuirEvaporationCoeffs
        {
            Lb              Lb [ 1 2 -2 0 -1 0 0] 41236897.0;
            Tb              Tb [ 0 0 0 1 0 0 0] 375.5;
            La              0.38;
            betaM           0.6;

            Tc              Tc [ 0 0 0 1 0 0 0] 647.3;
            Pc              Pc [ 1 -1 -2 0 0 0 0] 22120000.0;
            PvCoeffs        (12.450952 4391.192311 106786.654764);
        }
    }
        
    //simply including this then accounts for all liquid-gas reactions in the
    // chemistry set. no arguments are needed other than the model type
    LiquidReaction
    {
        phaseChangeModel   PhaseChangeReaction;
        
        liquidSpecies
        (
        );
        
        gasSpecies
        (
        );
        
        PhaseChangeReactionCoeffs
        {
        }
    }
    
);


// ************************************************************************* //
