/*--------------------------------*- C++ -*----------------------------------*\
| =========                 |                                                 |
| \\      /  F ield         | OpenFOAM: The Open Source CFD Toolbox           |
|  \\    /   O peration     | Version:  2.1.x                                 |
|   \\  /    A nd           | Web:      www.OpenFOAM.org                      |
|    \\/     M anipulation  |                                                 |
\*---------------------------------------------------------------------------*/
FoamFile
{
    version     2.0;
    format      ascii;
    class       volScalarField;
    object      k;
}
// * * * * * * * * * * * * * * * * * * * * * * * * * * * * * * * * * * * * * //

dimensions      [0 2 -2 0 0 0 0];

internalField   uniform 0.001;

boundaryField
{
    atmosphere
    {
        type            inletOutlet;
        inletValue      $internalField;
        value           $internalField;
    }
    
    inflow
    {
        type            fixedValue;
        intensity       0.01;
        value           $internalField;
        
        //type            inletOutlet;
        //inletValue      uniform 0.001;
        //value           uniform 1e-11;
    }
    
    walls
    {
        type            compressible::kqRWallFunction;
        value           $internalField;
    }

    symmetry
    {
        type            symmetryPlane;
    }
    
    wedge_pos  {  type wedge;  }
    wedge_neg  {  type wedge;  }
    axis       {  type empty;  }
}

// ************************************************************************* //
