/*--------------------------------*- C++ -*----------------------------------*\
| =========                 |                                                 |
| \\      /  F ield         | OpenFOAM: The Open Source CFD Toolbox           |
|  \\    /   O peration     | Version:  2.1.1                                 |
|   \\  /    A nd           | Web:      www.OpenFOAM.org                      |
|    \\/     M anipulation  |                                                 |
\*---------------------------------------------------------------------------*/
FoamFile
{
    version     2.0;
    format      ascii;
    class       volScalarField;
    object      p;
}
// * * * * * * * * * * * * * * * * * * * * * * * * * * * * * * * * * * * * * //

dimensions      [1 -1 -2 0 0 0 0];

internalField   uniform 0;

boundaryField
{
    atmosphere
    {
        type            fixedValue;
        value           uniform 0;
        
        /*type            totalPressure;
        p0              uniform 0;
        U               U;
        phi             phi;
        rho             rho;
        psi             none;
        gamma           1;
        value           uniform 0;*/
    }
    
    inflow
    {
        type            fixedValue;
        value           uniform 1;
    }

    walls
    {
        type            buoyantPressure;
        value           uniform 0;
    }
    
    symmetry
    {
        type            symmetryPlane;
    }
    
    defaultFaces
    {
        type            empty;
    }
    
    wedge_pos  {  type wedge;  }
    wedge_neg  {  type wedge;  }
    axis       {  type empty;  }
}

// ************************************************************************* //
