THERMO ALL
   300.000  1000.000  5000.000
N2                121286N   2               G   200.000  5000.000  1000.000    1
 0.02926640E+02 0.14879768E-02-0.05684760E-05 0.10097038E-09-0.06753351E-13    2
-0.09227977E+04 0.05980528E+02 0.03298677E+02 0.14082404E-02-0.03963222E-04    3
 0.05641515E-07-0.02444854E-10-0.10208999E+04 0.03950372E+02                   4
O                 L 1/90O   1               G   200.000  3500.000  1000.000    1
 2.56942078E+00-8.59741137E-05 4.19484589E-08-1.00177799E-11 1.22833691E-15    2
 2.92175791E+04 4.78433864E+00 3.16826710E+00-3.27931884E-03 6.64306396E-06    3
-6.12806624E-09 2.11265971E-12 2.91222592E+04 2.05193346E+00                   4
O2                TPIS89O   2               G   200.000  3500.000  1000.000    1
 3.28253784E+00 1.48308754E-03-7.57966669E-07 2.09470555E-10-2.16717794E-14    2
-1.08845772E+03 5.45323129E+00 3.78245636E+00-2.99673416E-03 9.84730201E-06    3
-9.68129509E-09 3.24372837E-12-1.06394356E+03 3.65767573E+00                   4
H                 L 7/88H   1               G   200.000  3500.000  1000.000    1
 2.50000001E+00-2.30842973E-11 1.61561948E-14-4.73515235E-18 4.98197357E-22    2
 2.54736599E+04-4.46682914E-01 2.50000000E+00 7.05332819E-13-1.99591964E-15    3
 2.30081632E-18-9.27732332E-22 2.54736599E+04-4.46682853E-01                   4
H2                TPIS78H   2               G   200.000  3500.000  1000.000    1
 3.33727920E+00-4.94024731E-05 4.99456778E-07-1.79566394E-10 2.00255376E-14    2
-9.50158922E+02-3.20502331E+00 2.34433112E+00 7.98052075E-03-1.94781510E-05    3
 2.01572094E-08-7.37611761E-12-9.17935173E+02 6.83010238E-01                   4
CO                TPIS79C   1O   1          G   200.000  3500.000  1000.000    1
 2.71518561E+00 2.06252743E-03-9.98825771E-07 2.30053008E-10-2.03647716E-14    2
-1.41518724E+04 7.81868772E+00 3.57953347E+00-6.10353680E-04 1.01681433E-06    3
 9.07005884E-10-9.04424499E-13-1.43440860E+04 3.50840928E+00                   4
CO2               L 7/88C   1O   2          G   200.000  3500.000  1000.000    1
 3.85746029E+00 4.41437026E-03-2.21481404E-06 5.23490188E-10-4.72084164E-14    2
-4.87591660E+04 2.27163806E+00 2.35677352E+00 8.98459677E-03-7.12356269E-06    3
 2.45919022E-09-1.43699548E-13-4.83719697E+04 9.90105222E+00                   4
CH3               L11/89C   1H   3          G   200.000  3500.000  1000.000    1
 2.28571772E+00 7.23990037E-03-2.98714348E-06 5.95684644E-10-4.67154394E-14    2
 1.67755843E+04 8.48007179E+00 3.67359040E+00 2.01095175E-03 5.73021856E-06    3
-6.87117425E-09 2.54385734E-12 1.64449988E+04 1.60456433E+00                   4
CH3O              121686C   1H   3O   1     G   200.00   3000.00   1000.000    1
 0.03770799E+02 0.07871497E-01-0.02656384E-04 0.03944431E-08-0.02112616E-12    2
 0.12783252E+03 0.02929575E+02 0.02106204E+02 0.07216595E-01 0.05338472E-04    3
-0.07377636E-07 0.02075610E-10 0.09786011E+04 0.13152177E+02                   4
CH3OH             L 8/88C   1H   4O   1     G   200.000  3500.000  1000.000    1
 1.78970791E+00 1.40938292E-02-6.36500835E-06 1.38171085E-09-1.17060220E-13    2
-2.53748747E+04 1.45023623E+01 5.71539582E+00-1.52309129E-02 6.52441155E-05    3
-7.10806889E-08 2.61352698E-11-2.56427656E+04-1.50409823E+00                   4
H2O               L 8/89H   2O   1          G   200.000  3500.000  1000.000    1
 3.03399249E+00 2.17691804E-03-1.64072518E-07-9.70419870E-11 1.68200992E-14    2
-3.00042971E+04 4.96677010E+00 4.19864056E+00-2.03643410E-03 6.52040211E-06    3
-5.48797062E-09 1.77197817E-12-3.02937267E+04-8.49032208E-01                   4
NO2               L 7/88N   1O   2          G   200.000  6000.000  1000.000    1
 0.48847542E+01 0.21723956E-02-0.82806906E-06 0.15747510E-09-0.10510895E-13    2
 0.23164983E+04-0.11741695E+00 0.39440312E+01-0.15854290E-02 0.16657812E-04    3
-0.20475426E-07 0.78350564E-11 0.28966179E+04 0.63119917E+01                   4
CH3NHNH2               0C   1H   6N   2    0G   298.150  6000.000 1000.00      1
 6.46195602D+00 1.54661452D-02-5.29188310D-06 8.22877488D-10-4.78182997D-14    2
 8.08517920D+03-1.06506405D+01-1.55617356D-01 3.41164172D-02-3.21289044D-05    3
 2.50164209D-08-9.43703969D-12 1.01527490D+04 2.41129608D+01                   4
CH3NNH2                0C   1H   5N   2O   0G   200.000  6000.000 1000.00      1
 6.48248625D+00 1.31416200D-02-4.55408099D-06 7.15495219D-10-4.19235501D-14    2
 2.18344199D+04-9.10020638D+00 2.89725447D+00 1.52571928D-02 5.46573210D-06    3
-1.13299263D-08 3.45334525D-12 2.33342324D+04 1.16815443D+01                   4
CH3NNH                 0C   1H   4N   2O   0G   200.000  6000.000 1000.00      1
 5.48334026D+00 1.17117818D-02-4.12106147D-06 6.54262200D-10-3.86199590D-14    2
 1.86890527D+04-4.73384237D+00 3.51484036D+00 5.56200324D-03 2.14472257D-05    3
-2.41589770D-08 7.32461054D-12 1.99403457D+04 8.65997982D+00                   4
CH3NN                  0C   1H   3N   2    0G   200.000  6000.000 1000.00      1
 5.67013311D+00 8.94569233D-03-3.14525028D-06 4.98943442D-10-2.94305257D-14    2
 2.57493809D+04-3.74855208D+00 3.61245823D+00 8.93290434D-03 4.69342467D-06    3
-6.90933755D-09 1.61064066D-12 2.67246172D+04 8.61822414D+00                   4
CH2O              L 8/88H   2C   1O   1   00G   200.000  3500.000  1000.000    1
 1.76069008E+00 9.20000082E-03-4.42258813E-06 1.00641212E-09-8.83855640E-14    2
-1.39958323E+04 1.36563230E+01 4.79372315E+00-9.90833369E-03 3.73220008E-05    3
-3.79285261E-08 1.31772652E-11-1.43089567E+04 6.02812900E-01 1.00197170E+04    4
HCO         McB93 L12/89H   1C   1O   1    0G   200.000  6000.000 1000.000     1
 3.64896209E+00 3.08090819E-03-1.12429876E-06 1.86308085E-10-1.13951828E-14    2
 3.71209048E+03 5.06147406E+00 4.22118584E+00-3.24392532E-03 1.37799446E-05    3
-1.33144093E-08 4.33768865E-12 3.83956496E+03 3.39437243E+00 5.05141013E+03    4
HNO           WRA032498 H   1N   1O   1    0G   200.000  6000.000 1000.000     1
 3.16554762E+00 3.00005132E-03-3.94350282E-07-3.85787491E-11 7.08091931E-15    2
 1.18052184E+04 7.64764695E+00 4.53525882E+00-5.68546910E-03 1.85199976E-05    3
-1.71883674E-08 5.55833090E-12 1.16506820E+04 1.74314734E+00 1.28824477E+04    4
NO                MCB93 N   1O   1    0    0G   200.000  6000.000 1000.000     1
 3.26071234E+00 1.19101135E-03-4.29122646E-07 6.94481463E-11-4.03295681E-15    2
 9.92143132E+03 6.36900518E+00 4.21859896E+00-4.63988124E-03 1.10443049E-05    3
-9.34055507E-09 2.80554874E-12 9.84509964E+03 2.28061001E+00 1.09770882E+04    4
OH          Sand/Rusc01 O   1H   1          G  0300.00   5000.00  1000.00      1
 0.02882730E+02 0.01013974E-01-0.02276877E-05 0.02174684E-09-0.05126305E-14    2
 0.03672089E+05 0.05595712E+02 0.03637266E+02 0.01850910E-02-0.01676165E-04    3
 0.02387203E-07-0.08431442E-11 0.03391983E+05 0.01358860E+02                   4
HO2         McB93/WRA00 H   1O   2    0    0G   200.000  6000.000 1000.000     1
 4.17228728E+00 1.88117647E-03-3.46277408E-07 1.94657853E-11 1.76254294E-16    2
 2.13417795E+02 2.95767746E+00 4.30179801E+00-4.74912051E-03 2.11582891E-05    3
-2.42763894E-08 9.29225124E-12 4.46415539E+02 3.71666245E+00 1.66125750E+03    4
HONO       MELIUS88     N   1H   1O   2    0G   300.000  5000.000 1685.000     1
 6.22843297E+00 3.99232107E-03-1.71329587E-06 3.09055124E-10-1.99408751E-14    2
 2.57303316E+04-7.82004870E+00 2.82368890E+00 9.26020228E-03-3.10307876E-06    3
-6.57987763E-10 3.64688961E-13 2.71092460E+04 1.13391387E+01                   4
HNO3              121286H   1N   1O   3     G  0300.00   5000.00  1000.00      1
 0.07003844E+02 0.05811493E-01-0.02333788E-04 0.04288814E-08-0.02959385E-12    2
-0.01889952E+06-0.10478628E+02 0.13531850E+01 0.02220024E+00-0.01978811E-03    3
 0.08773908E-07-0.16583844E-11-0.01738562E+06 0.01851868E+03                   4
N2O4              121286N   2O   4          G  0300.00   5000.00  1000.00      1
 0.10482201E+02 0.05972272E-01-0.02564043E-04 0.04916885E-08-0.03490969E-12    2
-0.02849988E+05-0.02612289E+03 0.03624592E+02 0.02474708E+00-0.02172874E-03    3
 0.09927103E-07-0.02222817E-10-0.09128241E+04 0.09457174E+02                   4
CH3NHNH2L              0C   1H   6N   2    0L   200.000  6000.000 1000.00      1
 6.46195602E+00 1.54661452E-02-5.29188310E-06 8.22877488E-10-4.78182997E-14    2
-2.91268208E+04-1.06506405E+01-1.55617356E-01 3.41164172E-02-3.21289044E-05    3
 2.50164209E-08-9.43703969E-12-2.70592510E+04 2.41129608E+01                   4
N2O4L             121286N   2O   4          L   200.00   5000.00  1000.00      1
 0.10482201E+02 0.05972272E-01-0.02564043E-04 0.04916885E-08-0.03490969E-12    2
-4.09379880E+04-0.02612289E+03 0.03624592E+02 0.02474708E+00-0.02172874E-03    3
 0.09927103E-07-0.02222817E-10-3.90008241E+04 0.09457174E+02                   4
END
