/*--------------------------------*- C++ -*----------------------------------*\
| =========                 |                                                 |
| \\      /  F ield         | OpenFOAM: The Open Source CFD Toolbox           |
|  \\    /   O peration     | Version:  2.1.x                                 |
|   \\  /    A nd           | Web:      www.OpenFOAM.org                      |
|    \\/     M anipulation  |                                                 |
\*---------------------------------------------------------------------------*/
FoamFile
{
    version     2.0;
    format      ascii;
    class       dictionary;
    location    "constant";
    object      chemistryProperties;
}
// * * * * * * * * * * * * * * * * * * * * * * * * * * * * * * * * * * * * * //

psiChemistryModel ODEChemistryModel<gasThermoPhysics>;

chemistry       on;

initialChemicalTimeStep 1e-8;

chemistrySolver ode;

EulerImplicitCoeffs
{
    cTauChem        0.05;
    equilibriumRateLimiter off;
}

odeCoeffs
{
    solver          SIBS;
    eps             0.001;
}


// ************************************************************************* //
