/*--------------------------------*- C++ -*----------------------------------*\
| =========                 |                                                 |
| \\      /  F ield         | OpenFOAM: The Open Source CFD Toolbox           |
|  \\    /   O peration     | Version:  2.1.x                                 |
|   \\  /    A nd           | Web:      www.OpenFOAM.org                      |
|    \\/     M anipulation  |                                                 |
\*---------------------------------------------------------------------------*/
FoamFile
{
    version     2.0;
    format      ascii;
    class       dictionary;
    location    "constant";
    object      thermophysicalProperties;
}
// * * * * * * * * * * * * * * * * * * * * * * * * * * * * * * * * * * * * * //

thermoType hsTwophaseMixtureThermo<reactingMixture<gasThermoPhysics>>;

chemistryReader foamChemistryReader;

foamChemistryFile "$FOAM_CASE/constant/reactions";

foamChemistryThermoFile "$FOAM_CASE/constant/thermo";

// Phase volume fraction tolerance for diffusion mask
phaseMaskTol 0.01;

Vapor
{
   Sc  Sc [ 0 0 0 0 0 0 0] 0.9;
   
   subspecies
   (
        H            {}
        H2           {}
        O            {}
        OH           {}
        H2O          {}
        HO2          {}
        CH2          {}
        CH3          {}
        CH4          {}
        CO           {}
        HCO          {}
        CH2O         {}
        CH3O         {}
        CO2          {}
        N            {}
        NH           {}
        NH2          {}
        NH3          {}
        N2           {}
        NNH          {}
        N2H2         {}
        NO           {}
        HNO          {}
        N2O          {}
        NO2          {}
        HONO         {}
        HNO3         {}
        CN           {}
        HCN          {}
        HNC          {}
        NCO          {}
        CH3NHNH2     {}
        CH2NHNH2     {}
        CH3NNH2      {}
        CH3NHNH      {}
        CH3NN        {}
        CH2NNH2      {}
        HNCO         {}
        CH3NNH       {}
        CH3ONO2      {}
        SIO2         {}
   );
}

noVaporPairs
(
    (CH3NHNH2L HNO3L)
);


Liquid
{
   Sc  Sc [ 0 0 0 0 0 0 0] 200.0;
   
   subspecies
   (
        CH3NHNH2L
        {
            transportModel  Newtonian;
            nu              nu [ 0 2 -1 0 0 0 0 ] 9.2e-7; //rocketdyne
            
            //transportModel NewtonianPolynomial;
            //nuB          nuB  [ 0 2 -1 0 0 0 0 ] 3.68e-7; //Schmidt Ed. 2
            //Tb           Tb   [ 0 0 0 1 0 0 0] 360;
   
            D0           D0   [ 0 2 -1 0 0 0 0 ] 1e-9;
            rho0         rho0 [ 1 -3 0 0 0 0 0 ] 870.0;
            Tc           Tc   [ 0 0 0 1 0 0 0] 585.0;
            kappa        kappa [1 1 -3 -1 0 0 0] 0.25; //mmh bible, 300 K 
            
            sigma0          sigma0 [ 1 0 -2 0 0 0 0] 0.0626;
            sigmaa          0.884;
        }
        
        MMHN-3HNO3
        {   // same properties as HNO3
            transportModel  Newtonian;
            nu              nu [ 0 2 -1 0 0 0 0 ] 6.5e-7;
            
            //transportModel NewtonianPolynomial;
            //nuB          nuB  [ 0 2 -1 0 0 0 0 ] 2.6e-7; //factor of 2.5 lower
            //Tb           Tb   [ 0 0 0 1 0 0 0] 360.8;
            
            D0           D0   [ 0 2 -1 0 0 0 0 ] 1e-9;
            rho0      rho0 [ 1 -3 0 0 0 0 0 ] 1550.0;
            Tc        Tc   [ 0 0 0 1 0 0 0] 546.5;
            kappa        kappa [1 1 -3 -1 0 0 0] 0.28;
              
            sigma0          sigma0 [ 1 0 -2 0 0 0 0] 0.0887;
            sigmaa          1;
        }
        
        MMH2N
        {   // same properties as HNO3
            transportModel  Newtonian;
            nu              nu [ 0 2 -1 0 0 0 0 ] 6.5e-7;
            
            //transportModel NewtonianPolynomial;
            //nuB          nuB  [ 0 2 -1 0 0 0 0 ] 2.6e-7; //factor of 2.5 lower
            //Tb           Tb   [ 0 0 0 1 0 0 0] 360.8;
            
            D0           D0   [ 0 2 -1 0 0 0 0 ] 1e-9;
            rho0      rho0 [ 1 -3 0 0 0 0 0 ] 1550.0;
            Tc        Tc   [ 0 0 0 1 0 0 0] 546.5;
            kappa        kappa [1 1 -3 -1 0 0 0] 0.28;
              
            sigma0          sigma0 [ 1 0 -2 0 0 0 0] 0.0887;
            sigmaa          1;
        }

        CH3ONO2L
        {
            transportModel  Newtonian;
            nu              nu [ 0 2 -1 0 0 0 0 ] 9.2e-7; //rocketdyne
            
            //transportModel NewtonianPolynomial;
            //nuB          nuB  [ 0 2 -1 0 0 0 0 ] 3.68e-7;
            //Tb           Tb   [ 0 0 0 1 0 0 0] 338.5;
   
            D0           D0   [ 0 2 -1 0 0 0 0 ] 1e-9;
            rho0         rho0 [ 1 -3 0 0 0 0 0 ] 870.0;
            Tc           Tc   [ 0 0 0 1 0 0 0] 585.0;
            kappa        kappa [1 1 -3 -1 0 0 0] 0.25; //mmh bible, 300 K 
            
            sigma0          sigma0 [ 1 0 -2 0 0 0 0] 0.0626;
            sigmaa          0.884;
        }
        
        NO2L
        {
            transportModel  Newtonian;
            nu              nu [ 0 2 -1 0 0 0 0 ] 6.5e-7;
            
            //transportModel NewtonianPolynomial;
            //nuB          nuB  [ 0 2 -1 0 0 0 0 ] 2.6e-7; //factor of 2.5 lower
            //Tb           Tb   [ 0 0 0 1 0 0 0] 294;
            
            D0           D0   [ 0 2 -1 0 0 0 0 ] 1e-9;
            rho0      rho0 [ 1 -3 0 0 0 0 0 ] 1447.0;
            Tc        Tc   [ 0 0 0 1 0 0 0] 431.35;
            kappa        kappa [1 1 -3 -1 0 0 0] 0.28;
              
            sigma0          sigma0 [ 1 0 -2 0 0 0 0] 0.062;
            sigmaa          0.745;
        }
        
        HNO3L
        {
            transportModel  Newtonian;
            nu              nu [ 0 2 -1 0 0 0 0 ] 6.5e-7;
            
            //transportModel NewtonianPolynomial;
            //nuB          nuB  [ 0 2 -1 0 0 0 0 ] 2.6e-7; //factor of 2.5 lower
            //Tb           Tb   [ 0 0 0 1 0 0 0] 360.8;
            
            D0           D0   [ 0 2 -1 0 0 0 0 ] 1e-9;
            rho0      rho0 [ 1 -3 0 0 0 0 0 ] 1550.0;
            Tc        Tc   [ 0 0 0 1 0 0 0] 546.5;
            kappa        kappa [1 1 -3 -1 0 0 0] 0.28;
              
            sigma0          sigma0 [ 1 0 -2 0 0 0 0] 0.0887;
            sigmaa          1;
        }

        HONOL
        {
            transportModel  Newtonian;
            nu              nu [ 0 2 -1 0 0 0 0 ] 6.5e-7;
            
            //transportModel NewtonianPolynomial;
            //nuB          nuB  [ 0 2 -1 0 0 0 0 ] 2.6e-7; //factor of 2.5 lower
            //Tb           Tb   [ 0 0 0 1 0 0 0] 360.8;
            
            D0           D0   [ 0 2 -1 0 0 0 0 ] 1e-9;
            rho0      rho0 [ 1 -3 0 0 0 0 0 ] 1550.0;
            Tc        Tc   [ 0 0 0 1 0 0 0] 546.5;
            kappa        kappa [1 1 -3 -1 0 0 0] 0.28;
              
            sigma0          sigma0 [ 1 0 -2 0 0 0 0] 0.0887;
            sigmaa          1;
        }
        
        H2OL
        {
            transportModel  Newtonian;
            nu              nu [ 0 2 -1 0 0 0 0 ] 9.4e-7;
            
            //transportModel NewtonianPolynomial;
            //nuB          nuB  [ 0 2 -1 0 0 0 0 ] 2.96e-7; //Cengel Ed. 2
            //Tb           Tb   [ 0 0 0 1 0 0 0] 373.15;
            
            
            D0           D0   [ 0 2 -1 0 0 0 0 ] 1e-9;
            rho0      rho0  [ 1 -3 0 0 0 0 0 ] 1000.0;
            Tc        Tc    [ 0 0 0 1 0 0 0] 647.3;
            kappa     kappa [1 1 -3 -1 0 0 0] 0.28;
              
            sigma0          sigma0 [ 1 0 -2 0 0 0 0] 0.07;
            sigmaa          1;
        }
   );
}



phaseChangeReactions
(
    /*MMH3NDecomp
    {
        phaseChangeModel ThermalDecompReaction;
        
        liquidSpecies
        (
            MMH3N   1.0
        );
        
        gasSpecies
        (
            CH3ONO2   1.0
            HONO      1.6
            OH        0.4
            NO        0.4
            H2O       2.0
            N2        1.0
        );
        
        ThermalDecompReactionCoeffs
        {
            dH              dH [ 1 2 -2 0 -1 0 0] 100000000.0;  // J/kmol 
            Lb              Lb [ 1 2 -2 0 -1 0 0] 38000000.0;
            Tb              Tb [ 0 0 0 1 0 0 0] 390;
            betaTD          betaTD [-1 -1 1 0 1 0 0] 1e-4;

            Tc              Tc [ 0 0 0 1 0 0 0] 600.0;
            Pc              Pc [ 1 -1 -2 0 0 0 0] 5000000.0;
            PvCoeffs        (10.2776 3.4459e3 2.1932e5);
        }
    }*/
    
    
    MMHEvap
    {
        phaseChangeModel LangmuirEvaporation;
        
        liquidSpecies
        (
            CH3NHNH2L   1.0
        );
        
        gasSpecies
        (
            CH3NHNH2   1.0
        );
        
        LangmuirEvaporationCoeffs
        {
            Lb              Lb [ 1 2 -2 0 -1 0 0] 38884000.0;
            Tb              Tb [ 0 0 0 1 0 0 0] 360.476;
            La              0.38;
            betaV           0.6;
            betaC           0.0;

            Tc              Tc [ 0 0 0 1 0 0 0] 585.0;
            Pc              Pc [ 1 -1 -2 0 0 0 0] 8210000.0;
            PvCoeffs        (9.1834 1943.89 492587.8);
        }
    }
    
    MethylNitrateEvap
    {
        phaseChangeModel LangmuirEvaporation;
        
        liquidSpecies
        (
            CH3ONO2L   1.0
        );
        
        gasSpecies
        (
            CH3ONO2   1.0
        );
        
        LangmuirEvaporationCoeffs
        {
            Lb              Lb [ 1 2 -2 0 -1 0 0] 32990492.0;
            Tb              Tb [ 0 0 0 1 0 0 0] 338.5;
            La              0.38;
            betaV           0.6;
            betaC           0.0;

            Tc              Tc [ 0 0 0 1 0 0 0] 585.0;
            Pc              Pc [ 1 -1 -2 0 0 0 0] 6000000.0;
            PvCoeffs        (7.032199 792.219942 537453.773429);
        }
    }
        
        
    NAEvap
    {
        phaseChangeModel LangmuirEvaporation;
        
        liquidSpecies
        (
            HNO3L   1.0
        );
        
        gasSpecies
        (
            HNO3   1.0
        );
        
        LangmuirEvaporationCoeffs
        {
            Lb              Lb [ 1 2 -2 0 -1 0 0] 38094729.0;
            Tb              Tb [ 0 0 0 1 0 0 0] 360.8;
            La              0.38;
            betaV           0.6;
            betaC           0.0;

            Tc              Tc [ 0 0 0 1 0 0 0] 546.48;
            Pc              Pc [ 1 -1 -2 0 0 0 0] 9535000.0;
            PvCoeffs        (14.922185 6186.610617 -289492.595);
        }
    }
    
    HONOEvap
    {
        phaseChangeModel LangmuirEvaporation;
        
        liquidSpecies
        (
            HONOL   1.0
        );
        
        gasSpecies
        (
            HONO   1.0
        );
        
        LangmuirEvaporationCoeffs
        {
            Lb              Lb [ 1 2 -2 0 -1 0 0] 38094729.0;
            Tb              Tb [ 0 0 0 1 0 0 0] 360.8;
            La              0.38;
            betaV           0.6;
            betaC           0.0;

            Tc              Tc [ 0 0 0 1 0 0 0] 546.48;
            Pc              Pc [ 1 -1 -2 0 0 0 0] 9535000.0;
            PvCoeffs        (14.922185 6186.610617 -289492.595);
        }
    }
    
    NTOEvap
    {
        phaseChangeModel LangmuirEvaporation;
        
        liquidSpecies
        (
            NO2L   1.0
        );
        
        gasSpecies
        (
            NO2   1.0
        );
        
        LangmuirEvaporationCoeffs
        {
            Lb              Lb [ 1 2 -2 0 -1 0 0] 33709918.0;
            Tb              Tb [ 0 0 0 1 0 0 0] 294;
            La              0.38;
            betaV           0.6;
            betaC           0.0;

            Tc              Tc [ 0 0 0 1 0 0 0] 431.35;
            Pc              Pc [ 1 -1 -2 0 0 0 0] 10100000.0;
            PvCoeffs        (16.046357 5374.83122 -193954.549332);
        }
    }
    
    H2OEvap
    {
        phaseChangeModel LangmuirEvaporation;
        
        liquidSpecies
        (
            H2OL   1.0
        );
        
        gasSpecies
        (
            H2O   1.0
        );
        
        LangmuirEvaporationCoeffs
        {
            Lb              Lb [ 1 2 -2 0 -1 0 0] 41236897.0;
            Tb              Tb [ 0 0 0 1 0 0 0] 375.5;
            La              0.38;
            betaV           0.6;
            betaC           0.0;

            Tc              Tc [ 0 0 0 1 0 0 0] 647.3;
            Pc              Pc [ 1 -1 -2 0 0 0 0] 22120000.0;
            PvCoeffs        (12.450952 4391.192311 106786.654764);
        }
    }
        
    //simply including this then accounts for all liquid-gas reactions in the
    // chemistry set. no arguments are needed other than the model type
    LiquidReaction
    {
        phaseChangeModel   PhaseChangeReaction;
        
        liquidSpecies
        (
        );
        
        gasSpecies
        (
        );
        
        PhaseChangeReactionCoeffs
        {
        }
    }
    
);




// ************************************************************************* //
