/*--------------------------------*- C++ -*----------------------------------*\
| =========                 |                                                 |
| \\      /  F ield         | OpenFOAM: The Open Source CFD Toolbox           |
|  \\    /   O peration     | Version:  2.1.x                                 |
|   \\  /    A nd           | Web:      www.OpenFOAM.org                      |
|    \\/     M anipulation  |                                                 |
\*---------------------------------------------------------------------------*/
FoamFile
{
    version     2.0;
    format      ascii;
    class       polyBoundaryMesh;
    location    "constant/polyMesh";
    object      boundary;
}
// * * * * * * * * * * * * * * * * * * * * * * * * * * * * * * * * * * * * * //

5
(
    Bottom
    {
        type            patch;
        nFaces          300;
        startFace       200200;
    }
    Sides
    {
        type            patch;
        nFaces          1000;
        startFace       200500;
    }
    Top
    {
        type            patch;
        nFaces          300;
        startFace       201500;
    }
    Wire
    {
        type            patch;
        nFaces          1200;
        startFace       201800;
    }
    FrontAndBack
    {
        type            symmetryPlane;
        nFaces          28800;
        startFace       203000;
    }
)

// ************************************************************************* //
