/*--------------------------------*- C++ -*----------------------------------*\
| =========                 |                                                 |
| \\      /  F ield         | OpenFOAM: The Open Source CFD Toolbox           |
|  \\    /   O peration     | Version:  2.1.x                                 |
|   \\  /    A nd           | Web:      www.OpenFOAM.org                      |
|    \\/     M anipulation  |                                                 |
\*---------------------------------------------------------------------------*/
FoamFile
{
    version     2.0;
    format      ascii;
    class       dictionary;
    location    "system";
    object      VOFSetFieldsDict;
}
// * * * * * * * * * * * * * * * * * * * * * * * * * * * * * * * * * * * * * //

defaultSpecies
(
    N2   1.0
);

vaporPhaseName   alphaVapor;

Udefault (0 0 0);
Tdefault 300;

shapes
(
    DropRFNA
    {
        alphaName alphaLiquid;
        
        shape    ellipsoid;
        
        ellipsoidCoeffs
        {
            center   (-0.0005 0 0.0015);
            radius   (0.001 0.001 0.001);
        }
        
        delVapor 3e-4;
        U        (0 0 -0.281);
        T        300;
        
        liquidSpecies
        (
            HNO3L  0.83
            NO2L   0.14
            SIO2   0.03
        );
        
        vaporSpecies
        (
            HNO3   0.35
            NO2    0.65
        );
    }
    
    DropMMH
    {
        alphaName alphaLiquid;
        
        shape    ellipsoid;
                
        ellipsoidCoeffs
        {
            center   (0.0005 0 -0.0015);
            radius   (0.001 0.001 0.001);
        }
        
        delVapor 3e-4;
        U        (0 0 0.5);
        T        300;
        
        liquidSpecies
        (
            CH3NHNH2L  0.94
            SIO2       0.06
        );
        
        vaporSpecies
        (
            CH3NHNH2   0.15
        );
    }

);


// ************************************************************************* //
