/*--------------------------------*- C++ -*----------------------------------*\
| =========                 |                                                 |
| \\      /  F ield         | OpenFOAM: The Open Source CFD Toolbox           |
|  \\    /   O peration     | Version:  2.1.x                                 |
|   \\  /    A nd           | Web:      www.OpenFOAM.org                      |
|    \\/     M anipulation  |                                                 |
\*---------------------------------------------------------------------------*/
FoamFile
{
    version     2.0;
    format      ascii;
    class       dictionary;
    location    "system";
    object      VOFSetFieldsDict;
}
// * * * * * * * * * * * * * * * * * * * * * * * * * * * * * * * * * * * * * //

defaultSpecies
(
);

droplets
(
    WaterDrop
    {
        center   (0 0.0015 0.0015);
        radius   (0 0.001 0.0005);
        delVapor 1e-4;
        U        (0 0 0);
        liquidSpecies
        (
        );
        vaporSpecies
        (
        );
    }
);


// ************************************************************************* //
