/*--------------------------------*- C++ -*----------------------------------*\
| =========                 |                                                 |
| \\      /  F ield         | OpenFOAM: The Open Source CFD Toolbox           |
|  \\    /   O peration     | Version:  2.1.0                                 |
|   \\  /    A nd           | Web:      www.OpenFOAM.org                      |
|    \\/     M anipulation  |                                                 |
\*---------------------------------------------------------------------------*/
FoamFile
{
    version     2.0;
    format      ascii;
    class       dictionary;
    object      blockMeshDict;
}
// * * * * * * * * * * * * * * * * * * * * * * * * * * * * * * * * * * * * * //

convertToMeters 0.001;

vertices
(
    (-8.00 0.00 -0.05) //0
    (-0.50 0.00 -0.05) //1
    (-0.50 8.00 -0.05) //2
    (-8.00 8.00 -0.05) //3
    (-8.00 0.00 0.05) //4
    (-0.50 0.00 0.05) //5
    (-0.50 8.00 0.05) //6
    (-8.00 8.00 0.05) //7
    (0.50 0.00 -0.05) //8
    (0.50 8.00 -0.05) //9
    (0.50 0.00 0.05) //10
    (0.50 8.00 0.05) //11
    (8.00 0.00 -0.05) //12
    (8.00 8.00 -0.05) //13
    (8.00 0.00 0.05) //14
    (8.00 8.00 0.05) //15
    (-0.50 9.00 -0.05) //16
    (-8.00 9.00 -0.05) //17
    (-0.50 9.00 0.05) //18
    (-8.00 9.00 0.05) //19
    (8.00 9.00 -0.05) //20
    (0.50 9.00 -0.05) //21
    (8.00 9.00 0.05) //22
    (0.50 9.00 0.05) //23
    (-0.50 21.00 -0.05) //24
    (-8.00 21.00 -0.05) //25
    (-0.50 21.00 0.05) //26
    (-8.00 21.00 0.05) //27
    (0.50 21.00 -0.05) //28
    (0.50 21.00 0.05) //29
    (8.00 21.00 -0.05) //30
    (8.00 21.00 0.05) //31
);

blocks
(
    hex (0 1 2 3 4 5 6 7) (75 80 1) edgeGrading (1 1 1 1 1 1 1 1 1 1 1 1)
    hex (1 8 9 2 5 10 11 6) (10 80 1) edgeGrading (1 1 1 1 1 1 1 1 1 1 1 1)
    hex (8 12 13 9 10 14 15 11) (75 80 1) edgeGrading (1 1 1 1 1 1 1 1 1 1 1 1)
    hex (3 2 16 17 7 6 18 19) (75 10 1) edgeGrading (1 1 1 1 1 1 1 1 1 1 1 1)
    hex (9 13 20 21 11 15 22 23) (75 10 1) edgeGrading (1 1 1 1 1 1 1 1 1 1 1 1)
    hex (17 16 24 25 19 18 26 27) (75 120 1) edgeGrading (1 1 1 1 1 1 1 1 1 1 1 1)
    hex (16 21 28 24 18 23 29 26) (10 120 1) edgeGrading (1 1 1 1 1 1 1 1 1 1 1 1)
    hex (21 20 30 28 23 22 31 29) (75 120 1) edgeGrading (1 1 1 1 1 1 1 1 1 1 1 1)
);

boundary
(
    symmetry
    {
        type symmetryPlane;
        faces
        (
            (2 1 0 3) //0
            (4 5 6 7) //1
            (9 8 1 2) //2
            (5 10 11 6) //3
            (13 12 8 9) //4
            (10 14 15 11) //5
            (16 2 3 17) //6
            (7 6 18 19) //7
            (20 13 9 21) //8
            (11 15 22 23) //9
            (24 16 17 25) //10
            (19 18 26 27) //11
            (28 21 16 24) //12
            (18 23 29 26) //13
            (30 20 21 28) //14
            (23 22 31 29) //15
        );
    }

    walls
    {
        type wall;
        faces
        (
            (4 7 3 0) //0
            (6 11 9 2) //1
            (15 14 12 13) //2
            (18 6 2 16) //3
            (7 19 17 3) //4
            (22 15 13 20) //5
            (11 23 21 9) //6
            (19 27 25 17) //7
            (23 18 16 21) //8
            (31 22 20 30) //9
        );
    }

    inflow
    {
        type patch;
        faces
        (
            (5 4 0 1) //0
            (10 5 1 8) //1
            (14 10 8 12) //2
        );
    }

    atmosphere
    {
        type patch;
        faces
        (
            (27 26 24 25) //0
            (26 29 28 24) //1
            (29 31 30 28) //2
        );
    }

);
mergePatchPairs
(
);

// ************************************************************************* //