/*--------------------------------*- C++ -*----------------------------------*\
| =========                 |                                                 |
| \\      /  F ield         | OpenFOAM: The Open Source CFD Toolbox           |
|  \\    /   O peration     | Version:  2.1.x                                 |
|   \\  /    A nd           | Web:      www.OpenFOAM.org                      |
|    \\/     M anipulation  |                                                 |
\*---------------------------------------------------------------------------*/
FoamFile
{
    version     2.0;
    format      ascii;
    class       polyBoundaryMesh;
    location    "constant/polyMesh";
    object      boundary;
}
// * * * * * * * * * * * * * * * * * * * * * * * * * * * * * * * * * * * * * //

4
(
    symmetry
    {
        type            symmetryPlane;
        nFaces          67000;
        startFace       66610;
    }
    walls
    {
        type            wall;
        nFaces          460;
        startFace       133610;
    }
    inflow
    {
        type            patch;
        nFaces          160;
        startFace       134070;
    }
    atmosphere
    {
        type            patch;
        nFaces          160;
        startFace       134230;
    }
)

// ************************************************************************* //
