/*--------------------------------*- C++ -*----------------------------------*\
| =========                 |                                                 |
| \\      /  F ield         | OpenFOAM: The Open Source CFD Toolbox           |
|  \\    /   O peration     | Version:  2.1.1                                 |
|   \\  /    A nd           | Web:      www.OpenFOAM.org                      |
|    \\/     M anipulation  |                                                 |
\*---------------------------------------------------------------------------*/
FoamFile
{
    version     2.0;
    format      ascii;
    class       dictionary;
    location    "system";
    object      controlDict;
}
// * * * * * * * * * * * * * * * * * * * * * * * * * * * * * * * * * * * * * //

application     reactingInterFoam;

startFrom       latestTime;

startTime       0;

stopAt          endTime;

endTime         1e-2;

deltaT          1e-8;

writeControl    adjustableRunTime; //timeStep

writeInterval   1e-5;

purgeWrite      0;

writeFormat     ascii;

writePrecision  7;

writeCompression compressed;

timeFormat      general;

timePrecision   7;

runTimeModifiable yes;

adjustTimeStep  yes;

maxCo           0.25;
maxAlphaCo      0.25;

maxDeltaT       1;

volSourceLimit  0.2;

libs
(
    "libdynamicFvMesh-dev.so"
);

// ************************************************************************* //
