/*--------------------------------*- C++ -*----------------------------------*\
| =========                 |                                                 |
| \\      /  F ield         | OpenFOAM: The Open Source CFD Toolbox           |
|  \\    /   O peration     | Version:  2.1.0                                 |
|   \\  /    A nd           | Web:      www.OpenFOAM.org                      |
|    \\/     M anipulation  |                                                 |
\*---------------------------------------------------------------------------*/
FoamFile
{
    version     2.0;
    format      ascii;
    class       dictionary;
    object      blockMeshDict;
}
// * * * * * * * * * * * * * * * * * * * * * * * * * * * * * * * * * * * * * //

convertToMeters 0.001;

vertices
(
    (0.00000 0.00000 -21.07834) //0
    (1.44113 0.83204 -21.07834) //1
    (0.00000 3.32815 -21.07834) //2
    (-1.44113 0.83204 -21.07834) //3
    (0.00000 0.00000 -1.07834) //4
    (1.44113 0.83204 -1.07834) //5
    (0.00000 3.32815 -1.07834) //6
    (-1.44113 0.83204 -1.07834) //7
    (0.00000 7.64150 -21.07834) //8
    (-3.30887 1.91038 -21.07834) //9
    (0.00000 7.64150 -1.07834) //10
    (-3.30887 1.91038 -1.07834) //11
    (3.30887 1.91038 -21.07834) //12
    (3.30887 1.91038 -1.07834) //13
    (0.00000 23.66025 -21.07834) //14
    (-15.00000 8.66025 -21.07834) //15
    (0.00000 23.66025 -1.07834) //16
    (-15.00000 8.66025 -1.07834) //17
    (15.00000 8.66025 -21.07834) //18
    (15.00000 8.66025 -1.07834) //19
    (0.00000 48.66025 -21.07834) //20
    (-15.00000 48.66025 -21.07834) //21
    (0.00000 48.66025 -1.07834) //22
    (-15.00000 48.66025 -1.07834) //23
    (15.00000 48.66025 -21.07834) //24
    (15.00000 48.66025 -1.07834) //25
    (0.00000 0.00000 1.07834) //26
    (1.44113 0.83204 1.07834) //27
    (0.00000 3.32815 1.07834) //28
    (-1.44113 0.83204 1.07834) //29
    (-2.00758 1.15907 -0.42426) //30
    (0.00000 4.49488 -0.49497) //31
    (0.00000 6.47478 -0.49497) //32
    (-2.74242 1.58334 -0.42426) //33
    (1.88510 1.08836 -0.56569) //34
    (2.86490 1.65405 -0.56569) //35
    (-2.00758 1.15907 0.42426) //36
    (0.00000 4.49488 0.49497) //37
    (0.00000 6.47478 0.49497) //38
    (-2.74242 1.58334 0.42426) //39
    (0.00000 7.64150 1.07834) //40
    (-3.30887 1.91038 1.07834) //41
    (1.88510 1.08836 0.56569) //42
    (2.86490 1.65405 0.56569) //43
    (3.30887 1.91038 1.07834) //44
    (-2.15849 1.24621 -0.25000) //45
    (0.00000 4.88483 -0.30000) //46
    (0.00000 6.08483 -0.30000) //47
    (-2.59151 1.49621 -0.25000) //48
    (-2.15849 1.24621 0.25000) //49
    (0.00000 4.88483 0.30000) //50
    (0.00000 6.08483 0.30000) //51
    (-2.59151 1.49621 0.25000) //52
    (2.07189 1.19621 -0.35000) //53
    (2.67811 1.54621 -0.35000) //54
    (2.07189 1.19621 0.35000) //55
    (2.67811 1.54621 0.35000) //56
    (-7.00758 -7.50118 -0.42426) //57
    (-7.74242 -7.07692 -0.42426) //58
    (-7.15849 -7.41405 -0.25000) //59
    (-7.59151 -7.16405 -0.25000) //60
    (-7.15849 -7.41405 0.25000) //61
    (-7.59151 -7.16405 0.25000) //62
    (-7.00758 -7.50118 0.42426) //63
    (-7.74242 -7.07692 0.42426) //64
    (6.88510 -7.57189 -0.56569) //65
    (7.86490 -7.00620 -0.56569) //66
    (7.07189 -7.46405 -0.35000) //67
    (7.67811 -7.11405 -0.35000) //68
    (7.07189 -7.46405 0.35000) //69
    (7.67811 -7.11405 0.35000) //70
    (6.88510 -7.57189 0.56569) //71
    (7.86490 -7.00620 0.56569) //72
    (0.00000 23.66025 1.07834) //73
    (-15.00000 8.66025 1.07834) //74
    (15.00000 8.66025 1.07834) //75
    (0.00000 48.66025 1.07834) //76
    (-15.00000 48.66025 1.07834) //77
    (15.00000 48.66025 1.07834) //78
    (0.00000 0.00000 21.07834) //79
    (1.44113 0.83204 21.07834) //80
    (0.00000 3.32815 21.07834) //81
    (-1.44113 0.83204 21.07834) //82
    (0.00000 7.64150 21.07834) //83
    (-3.30887 1.91038 21.07834) //84
    (3.30887 1.91038 21.07834) //85
    (0.00000 23.66025 21.07834) //86
    (-15.00000 8.66025 21.07834) //87
    (15.00000 8.66025 21.07834) //88
    (0.00000 48.66025 21.07834) //89
    (-15.00000 48.66025 21.07834) //90
    (15.00000 48.66025 21.07834) //91
);

blocks
(
    hex (0 1 2 3 4 5 6 7) (21 21 19) edgeGrading (1 1 1 1 1 1 1 1 0.333333333333 0.333333333333 0.333333333333 0.333333333333)
    hex (3 2 8 9 7 6 10 11) (21 20 19) edgeGrading (1 1 1 1 1 1 1 1 0.333333333333 0.333333333333 0.333333333333 0.333333333333)
    hex (1 12 8 2 5 13 10 6) (20 21 19) edgeGrading (1 1 1 1 1 1 1 1 0.333333333333 0.333333333333 0.333333333333 0.333333333333)
    hex (9 8 14 15 11 10 16 17) (21 45 19) edgeGrading (1 0.5 0.5 1 1 4 4 1 0.333333333333 0.333333333333 0.333333333333 0.333333333333)
    hex (12 18 14 8 13 19 16 10) (45 21 19) edgeGrading (1 4 4 1 1 0.5 0.5 1 0.333333333333 0.333333333333 0.333333333333 0.333333333333)
    hex (15 14 20 21 17 16 22 23) (21 50 19) edgeGrading (0.5 0.5 0.5 0.5 1 1 1 1 0.333333333333 0.333333333333 0.333333333333 0.333333333333)
    hex (18 24 20 14 19 25 22 16) (50 21 19) edgeGrading (1 1 1 1 0.5 0.5 0.5 0.5 0.333333333333 0.333333333333 0.333333333333 0.333333333333)
    hex (4 5 6 7 26 27 28 29) (21 21 20) edgeGrading (1 1 1 1 1 1 1 1 1 1 1 1)
    hex (7 6 10 11 30 31 32 33) (21 20 10) edgeGrading (1 1 1 1 1 1 1 1 1 1 1 1)
    hex (5 13 10 6 34 35 32 31) (20 21 10) edgeGrading (1 1 1 1 1 1 1 1 1 1 1 1)
    hex (36 37 38 39 29 28 40 41) (21 20 10) edgeGrading (1 1 1 1 1 1 1 1 1 1 1 1)
    hex (42 43 38 37 27 44 40 28) (20 21 10) edgeGrading (1 1 1 1 1 1 1 1 1 1 1 1)
    hex (7 6 31 30 29 28 37 36) (21 10 20) edgeGrading (1 1 1 1 1 1 1 1 1 1 1 1)
    hex (33 32 10 11 39 38 40 41) (21 10 20) edgeGrading (1 1 1 1 1 1 1 1 1 1 1 1)
    hex (27 28 37 42 5 6 31 34) (21 10 20) edgeGrading (1 1 1 1 1 1 1 1 1 1 1 1)
    hex (43 38 40 44 35 32 10 13) (21 10 20) edgeGrading (1 1 1 1 1 1 1 1 1 1 1 1)
    hex (30 31 32 33 45 46 47 48) (21 20 6) edgeGrading (1 1 1 1 1 1 1 1 1 1 1 1)
    hex (49 50 51 52 36 37 38 39) (21 20 6) edgeGrading (1 1 1 1 1 1 1 1 1 1 1 1)
    hex (30 31 46 45 36 37 50 49) (21 6 20) edgeGrading (1 1 1 1 1 1 1 1 1 1 1 1)
    hex (48 47 32 33 52 51 38 39) (21 6 20) edgeGrading (1 1 1 1 1 1 1 1 1 1 1 1)
    hex (34 35 32 31 53 54 47 46) (20 21 6) edgeGrading (1 1 1 1 1 1 1 1 1 1 1 1)
    hex (55 56 51 50 42 43 38 37) (20 21 6) edgeGrading (1 1 1 1 1 1 1 1 1 1 1 1)
    hex (34 53 46 31 42 55 50 37) (6 21 20) edgeGrading (1 1 1 1 1 1 1 1 1 1 1 1)
    hex (54 35 32 47 56 43 38 51) (6 21 20) edgeGrading (1 1 1 1 1 1 1 1 1 1 1 1)
    hex (45 46 47 48 49 50 51 52) (21 20 20) edgeGrading (1 1 1 1 1 1 1 1 1 1 1 1)
    hex (53 54 47 46 55 56 51 50) (20 21 20) edgeGrading (1 1 1 1 1 1 1 1 1 1 1 1)
    hex (57 30 33 58 59 45 48 60) (50 20 6) edgeGrading (1 1 1 1 1 1 1 1 1 1 1 1)
    hex (61 49 52 62 63 36 39 64) (50 20 6) edgeGrading (1 1 1 1 1 1 1 1 1 1 1 1)
    hex (57 30 45 59 63 36 49 61) (50 6 20) edgeGrading (1 1 1 1 1 1 1 1 1 1 1 1)
    hex (60 48 33 58 62 52 39 64) (50 6 20) edgeGrading (1 1 1 1 1 1 1 1 1 1 1 1)
    hex (59 45 48 60 61 49 52 62) (50 20 20) edgeGrading (1 1 1 1 1 1 1 1 1 1 1 1)
    hex (65 66 35 34 67 68 54 53) (20 50 6) edgeGrading (1 1 1 1 1 1 1 1 1 1 1 1)
    hex (69 70 56 55 71 72 43 42) (20 50 6) edgeGrading (1 1 1 1 1 1 1 1 1 1 1 1)
    hex (65 67 53 34 71 69 55 42) (6 50 20) edgeGrading (1 1 1 1 1 1 1 1 1 1 1 1)
    hex (68 66 35 54 70 72 43 56) (6 50 20) edgeGrading (1 1 1 1 1 1 1 1 1 1 1 1)
    hex (67 68 54 53 69 70 56 55) (20 50 20) edgeGrading (1 1 1 1 1 1 1 1 1 1 1 1)
    hex (11 10 16 17 41 40 73 74) (21 45 20) edgeGrading (1 0.5 0.5 1 1 4 4 1 1 1 1 1)
    hex (13 19 16 10 44 75 73 40) (45 21 20) edgeGrading (1 4 4 1 1 0.5 0.5 1 1 1 1 1)
    hex (17 16 22 23 74 73 76 77) (21 50 20) edgeGrading (0.5 0.5 0.5 0.5 1 1 1 1 1 1 1 1)
    hex (19 25 22 16 75 78 76 73) (50 21 20) edgeGrading (1 1 1 1 0.5 0.5 0.5 0.5 1 1 1 1)
    hex (26 27 28 29 79 80 81 82) (21 21 19) edgeGrading (1 1 1 1 1 1 1 1 3.0 3.0 3.0 3.0)
    hex (29 28 40 41 82 81 83 84) (21 20 19) edgeGrading (1 1 1 1 1 1 1 1 3.0 3.0 3.0 3.0)
    hex (27 44 40 28 80 85 83 81) (20 21 19) edgeGrading (1 1 1 1 1 1 1 1 3.0 3.0 3.0 3.0)
    hex (41 40 73 74 84 83 86 87) (21 45 19) edgeGrading (1 0.5 0.5 1 1 4 4 1 3.0 3.0 3.0 3.0)
    hex (44 75 73 40 85 88 86 83) (45 21 19) edgeGrading (1 4 4 1 1 0.5 0.5 1 3.0 3.0 3.0 3.0)
    hex (74 73 76 77 87 86 89 90) (21 50 19) edgeGrading (0.5 0.5 0.5 0.5 1 1 1 1 3.0 3.0 3.0 3.0)
    hex (75 78 76 73 88 91 89 86) (50 21 19) edgeGrading (1 1 1 1 0.5 0.5 0.5 0.5 3.0 3.0 3.0 3.0)
);

edges
(
    arc 13 5 (2.37500 1.37121 -1.52500)
    arc 5 27 (1.05431 0.60871 0.00000)
    arc 44 27 (2.37500 1.37121 1.52500)
    arc 13 44 (3.69569 2.13371 0.00000)
    arc 7 11 (-2.37500 1.37121 -1.52500)
    arc 29 7 (-1.05431 0.60871 0.00000)
    arc 29 41 (-2.37500 1.37121 1.52500)
    arc 41 11 (-3.69569 2.13371 0.00000)
    arc 35 34 (2.37500 1.37121 -0.80000)
    arc 42 43 (2.37500 1.37121 0.80000)
    arc 34 42 (1.68218 0.97121 0.00000)
    arc 43 35 (3.06782 1.77121 0.00000)
    arc 66 65 (7.37500 -7.28905 -0.80000)
    arc 71 72 (7.37500 -7.28905 0.80000)
    arc 65 71 (6.68218 -7.68905 0.00000)
    arc 72 66 (8.06782 -6.88905 0.00000)
    arc 30 33 (-2.37500 1.37121 -0.60000)
    arc 39 36 (-2.37500 1.37121 0.60000)
    arc 36 30 (-1.85538 1.07121 0.00000)
    arc 33 39 (-2.89462 1.67121 0.00000)
    arc 57 58 (-7.37500 -7.28905 -0.60000)
    arc 64 63 (-7.37500 -7.28905 0.60000)
    arc 57 63 (-6.85538 -7.58905 0.00000)
    arc 58 64 (-7.89462 -6.98905 0.00000)
);

boundary
(
    atmosphere
    {
        type patch;
        faces
        (
            (2 1 0 3) //0
            (4 7 3 0) //1
            (5 4 0 1) //2
            (8 2 3 9) //3
            (7 11 9 3) //4
            (8 12 1 2) //5
            (13 5 1 12) //6
            (14 8 9 15) //7
            (11 17 15 9) //8
            (14 18 12 8) //9
            (19 13 12 18) //10
            (20 14 15 21) //11
            (23 22 20 21) //12
            (17 23 21 15) //13
            (20 24 18 14) //14
            (22 25 24 20) //15
            (25 19 18 24) //16
            (26 29 7 4) //17
            (27 26 4 5) //18
            (41 74 17 11) //19
            (75 44 13 19) //20
            (77 76 22 23) //21
            (74 77 23 17) //22
            (76 78 25 22) //23
            (78 75 19 25) //24
            (79 80 81 82) //25
            (79 82 29 26) //26
            (80 79 26 27) //27
            (82 81 83 84) //28
            (82 84 41 29) //29
            (80 85 83 81) //30
            (85 80 27 44) //31
            (84 83 86 87) //32
            (84 87 74 41) //33
            (85 88 86 83) //34
            (88 85 44 75) //35
            (87 86 89 90) //36
            (90 89 76 77) //37
            (87 90 77 74) //38
            (88 91 89 86) //39
            (89 91 78 76) //40
            (91 88 75 78) //41
        );
    }

    walls
    {
        type wall;
        faces
        (
            (30 33 11 7) //0
            (35 34 5 13) //1
            (29 41 39 36) //2
            (44 27 42 43) //3
            (29 36 30 7) //4
            (39 41 11 33) //5
            (5 34 42 27) //6
            (35 13 44 43) //7
            (33 30 57 58) //8
            (63 36 39 64) //9
            (36 63 57 30) //10
            (64 39 33 58) //11
            (35 66 65 34) //12
            (71 72 43 42) //13
            (71 42 34 65) //14
            (43 72 66 35) //15
        );
    }

    OxInlet
    {
        type patch;
        faces
        (
            (59 60 58 57) //0
            (63 64 62 61) //1
            (63 61 59 57) //2
            (62 64 58 60) //3
            (61 62 60 59) //4
        );
    }

    FuelInlet
    {
        type patch;
        faces
        (
            (68 67 65 66) //0
            (72 71 69 70) //1
            (69 71 65 67) //2
            (72 70 68 66) //3
            (70 69 67 68) //4
        );
    }

);
mergePatchPairs
(
);

// ************************************************************************* //