/*--------------------------------*- C++ -*----------------------------------*\
| =========                 |                                                 |
| \\      /  F ield         | OpenFOAM: The Open Source CFD Toolbox           |
|  \\    /   O peration     | Version:  2.1.0                                 |
|   \\  /    A nd           | Web:      www.OpenFOAM.org                      |
|    \\/     M anipulation  |                                                 |
\*---------------------------------------------------------------------------*/
FoamFile
{
    version     2.0;
    format      ascii;
    class       dictionary;
    object      blockMeshDict;
}
// * * * * * * * * * * * * * * * * * * * * * * * * * * * * * * * * * * * * * //

convertToMeters 0.01; //values here are in cm

vertices
(
    (0 0 0)      //0
    (0 0.5 -0.01)  //1
    (0 0.5 0.01)   //2
    (2 0 0)      //3
    (2 0.5 -0.01)  //4
    (2 0.5 0.01)   //5
);

blocks
(
    hex (0 1 2 0 3 4 5 3) (100 1 400) simpleGrading (1 1 1)
);

edges
(
);

boundary
(
    wedge_pos
    {
        type wedge;
        faces
        (
            (5 2 0 3)
        );
    }
    
    wedge_neg
    {
        type wedge;
        faces
        (
            (4 3 0 1)
        );
    }

    walls
    {
        type wall;
        faces
        (
            (0 2 1 0)
            (4 1 2 5)
        );
    }

    atmosphere
    {
        type patch;
        faces
        (
            (3 4 5 3)
        );
    }
    
    axis
    {
        type empty;
        faces
        (
            (3 3 0 0)
        );
    }
);

mergePatchPairs
(
);

// ************************************************************************* //
