/*--------------------------------*- C++ -*----------------------------------*\
| =========                 |                                                 |
| \\      /  F ield         | OpenFOAM: The Open Source CFD Toolbox           |
|  \\    /   O peration     | Version:  2.1.x                                 |
|   \\  /    A nd           | Web:      www.OpenFOAM.org                      |
|    \\/     M anipulation  |                                                 |
\*---------------------------------------------------------------------------*/
FoamFile
{
    version     2.0;
    format      ascii;
    class       dictionary;
    object      blockMeshDict;
}
// * * * * * * * * * * * * * * * * * * * * * * * * * * * * * * * * * * * * * //

convertToMeters 0.01; //values here are in cm

vertices
(
    (-0.5 -0.5  -0.5)
    (-0.5  0.5  -0.5)
    ( 0.5  0.5  -0.5)
    ( 0.5 -0.5  -0.5)
    (-0.5 -0.5  0.5)
    (-0.5  0.5  0.5)
    ( 0.5  0.5  0.5)
    ( 0.5 -0.5  0.5)
);

blocks
(
    hex (0 3 2 1 4 7 6 5) (50 50 50) simpleGrading (1 1 1)
);

edges
(
);

boundary
(
    atmosphere
    {
        type patch;
        faces
        (
            (3 2 6 7)
            (5 1 0 4)
            (1 5 6 2)
            (6 5 4 7)
            (0 3 7 4)
            (0 1 2 3)
        );
    }

    wall
    {
        type patch;
        faces
        (
        );

    }
);

mergePatchPairs
(
);

// ************************************************************************* //
