ELEMENTS
H C O N
END

SPECIES
N N2
END

REACTIONS
N2+M=N+N+M             3.710E+21  -1.60  225000.0
! THIRDBODY
END
