ELEMENTS
H C O N
END

SPECIES
CH3NHNH2L HNO3L NO2L HONOL H2OL CH3ONO2L OH NO N2
END

REACTIONS
CH3NHNH2L + 3HNO3L => CH3ONO2L + 2H2OL + 1.6HONOL + 0.4OH + 0.4NO + N2     1.00E+16  0.0   5900.0
END
