/*--------------------------------*- C++ -*----------------------------------*\
| =========                 |                                                 |
| \\      /  F ield         | OpenFOAM: The Open Source CFD Toolbox           |
|  \\    /   O peration     | Version:  2.1.x                                 |
|   \\  /    A nd           | Web:      www.OpenFOAM.org                      |
|    \\/     M anipulation  |                                                 |
\*---------------------------------------------------------------------------*/
FoamFile
{
    version     2.0;
    format      ascii;
    class       dictionary;
    location    "system";
    object      VOFSetFieldsDict;
}
// * * * * * * * * * * * * * * * * * * * * * * * * * * * * * * * * * * * * * //

defaultSpecies
(
    N2   1.0
);

droplets
(
    Drop1
    {
        center   (0 0.0035 0.002);
        radius   (0 0.001 0.001);
        delVapor 1e-4;
        U        (0 0 0);
        liquidSpecies
        (
            CH3NHNH2L  1.0
        );
        vaporSpecies
        (
            CH3NHNH2   0.05
        );
    }
    
    Drop2
    {
        center   (0 0.0012 0.0025);
        radius   (0 0.0005 0.0005);
        delVapor 1e-4;
        U        (0 5 0);
        liquidSpecies
        (
            CH3NHNH2L  1.0
        );
        vaporSpecies
        (
            CH3NHNH2   0.05
        );
    }
);


// ************************************************************************* //
