ELEMENTS
H C O N
END

SPECIES

! Gasses
CH3NHNH2 HNO3 NO2 N2 CH3ONO2 HONO OH NO H2O

! Liquids
CH3NHNH2L HNO3L NO2L CH3ONO2L HONOL H2OL

! Salts in solution
!MMH2N

END



REACTIONS
CH3NHNH2L + 3HNO3L => CH3ONO2L + 2H2OL + 1.6HONOL + 0.4OH + 0.4NO + N2     1.00E+16  0.0   5900.0

! Rapid aqueous salt formation
!CH3NHNH2L + 2HNO3L => MMH2N               1.25e23     0.0       5900.0
!FORD/ CH3NHNH2L 3.0/
!FORD/ HNO3L     6.0/

! Sudden decomposition of MMH2N to gaseous products at 400 K (rate capped)
!MMH2N + HNO3L => CH3ONO2 + 1.6HONO + 0.4OH + 0.4NO + 2H2O + N2    5.89e9  0.0  0.0
!FIT1/ 0 0 0 -1e11 /


! New approach, polyfit to get two activation energies
!MMH2N + HNO3L => CH3ONO2 + 1.6HONO + 0.4OH + 0.4NO + 2H2O + N2    9.74e10  0.0  0.0
!FIT1/ 6.206032e+02 -6.021845e+06 3.955046e+09 -8.665894e+11 /


END
