ELEMENTS
H C O N 
END

SPECIES
H H2 O OH H2O HO2 CH2 CH3 CH4 CO HCO CH2O CH3O CO2
N NH NH2 NH3 N2 NNH N2H2 NO HNO N2O NO2 HONO HNO3 N2O4
CN HCN HNC NCO CH3NHNH2 CH2NHNH2 CH3NNH2 CH3NHNH CH3NN
CH2NNH2 HNCO CH3NNH CH3ONO2
END

REACTIONS
O+H+M<=>OH+M                                   4.71E+18   -1.0        0.0
      H2O/ 12.0/
      H2/  2.5/
H2+M<=>2H+M                                    4.58E+19   -1.4   104380.0
      H2O/ 12.0/
      H2/  2.5/
H+OH+M<=>H2O+M                                 2.21E+22   -2.0        0.0
      H2O/ 12.0/
      H2/  2.5/
H2O+O<=>OH+OH                                  2.97E+06    2.0    13400.0
O+H2<=>H+OH                                    5.08E+04    2.7     6290.0
OH+H2<=>H+H2O                                  2.16E+08    1.5     3430.0
H+HO2<=>2OH                                    7.08E+13    0.0      300.0
H2+CO(+M)<=>CH2O(+M)                           4.30E+07    1.5    79600.0
       LOW/ 0.50700E+28 -0.34200E+01  0.84350E+05 /
      TROE/ 0.93200E+00  0.19700E+03  0.15400E+04  0.10300E+05 /
      H2/  2.0/
      H2O/ 6.0/
      CH4/ 2.0/
      CO/  1.5/
      CO2/ 2.0/
OH+CO<=>H+CO2                                  4.10E+04    2.1    -1578.0
HO2+CO<=>OH+CO2                                1.50E+14    0.0    23600.0
O+HCO<=>H+CO2                                  3.00E+13    0.0        0.0
H+HCO(+M)<=>CH2O(+M)                           1.09E+12    0.5     -260.0
       LOW/  0.24700E+25 -0.25700E+01  0.42500E+03 /
      TROE/  0.78240E+00  0.27100E+03  0.27550E+04  0.65700E+04 /
      H2/  2.0/
      H2O/ 6.0/
      CH4/ 2.0/
      CO/  1.5/
      CO2/ 2.0/
H+HCO<=>H2+CO                                  7.30E+13    0.0        0.0
OH+HCO<=>H2O+CO                                3.00E+13    0.0        0.0
HCO+M<=>H+CO+M                                 1.87E+17   -1.0    17000.0
      H2/  2.0/
      H2O/ 6.0/
      CH4/ 2.0/
      CO/  1.5/
      CO2/ 2.0/
HCO+HO2<=>CO2+OH+H                             3.00E+13    0.0        0.0
H+CH2O<=>HCO+H2                                5.18E+07    1.7     1834.0
H+CH2O(+M)<=>CH3O(+M)                          5.40E+11    0.5     2600.0
       LOW/ 0.22000E+31 -0.48000E+01  0.55600E+04 /
      TROE/ 0.75800E+00  0.94000E+02  0.15550E+04  0.42000E+04 /
      H2/  2.0/
      H2O/ 6.0/
      CH4/ 2.0/
      CO/  1.5/
      CO2/ 2.0/
OH+CH2O<=>HCO+H2O                              3.43E+09    1.2     -447.0
H+CH3O<=>H2+CH2O                               2.00E+13    0.0        0.0
H+CH3O<=>OH+CH3                                3.20E+13    0.0        0.0
OH+CH3O<=>H2O+CH2O                             1.80E+13    0.0        0.0
CH3O+CO<=>CH3+CO2                              1.57E+13    0.0    11800.0
O+CH4<=>OH+CH3                                 1.02E+09    1.5     8600.0
H+CH4<=>CH3+H2                                 6.60E+08    1.6    10840.0
OH+CH4<=>CH3+H2O                               1.00E+08    1.6     3120.0
CH2+CH4<=>2CH3                                 2.46E+06    2.0     8270.0
O+CH3<=>H+CH2O                                 5.06E+13    0.0        0.0
O+CH3<=>H+H2+CO                                3.37E+13    0.0        0.0
H+CH3(+M)<=>CH4(+M)                            1.39E+16   -0.5      536.0
       LOW/ 0.26200E+34 -0.47600E+01  0.24400E+04 /
      TROE/ 0.78300E+00  0.74000E+02  0.29410E+04  0.69640E+04 /
      H2/  2.0/
      H2O/ 6.0/
      CH4/ 2.0/
      CO/  1.5/
      CO2/ 2.0/
OH+CH3<=>CH2+H2O                               5.60E+07    1.6     5420.0
HO2+CH3<=>OH+CH3O                              2.00E+13    0.0        0.0
CH3+HCO<=>CH4+CO                               1.21E+14    0.0        0.0
CH3+CH2O<=>HCO+CH4                             3.32E+03    2.8     5860.0
O+CH2<=>H+HCO                                  8.00E+13    0.0        0.0
OH+CH2<=>H+CH2O                                2.00E+13    0.0        0.0
CH2+H2<=>H+CH3                                 5.00E+05    2.0     7230.0
NH+H<=>N+H2                                    3.20E+13    0.0      325.0
NH+OH<=>N+H2O                                  1.60E+07    1.7     -576.0
NH2+H<=>NH+H2                                  4.00E+13    0.0     3650.0
NH2+O<=>NH+OH                                  7.00E+12    0.0        0.0
NH2+O<=>NH+OH                                  8.60E-01    4.0     1673.0
NH2+OH<=>NH+H2O                                3.30E+06    1.9     -217.0
NH3+H<=>NH2+H2                                 6.36E+05    2.4    10171.0
NH3+O<=>NH2+OH                                 2.80E+02    3.3     4471.0
NH3+OH<=>NH2+H2O                               2.00E+06    2.0      566.0
NH2+NH2<=>NH3+NH                               5.60E+00    3.5      552.0
NNH<=>N2+H                                     1.00E+09    0.0        0.0
N2H2+M<=>NNH+H+M                               5.00E+16    0.0    50000.0
      H2O/ 15.0/
      N2/  2.0/
      H2/  2.0/
N2H2+H<=>NNH+H2                                8.50E+04    2.6      230.0
NH2+NH2<=>N2H2+H2                              1.70E+08    1.6    11783.0
N2H2+OH<=>NNH+H2O                              5.90E+01    3.4     1360.0
N+OH<=>NO+H                                    3.80E+13    0.0        0.0
NH+O<=>NO+H                                    9.20E+13    0.0        0.0
NH+OH<=>NO+H2                                  2.00E+13    0.0        0.0
N+NO<=>N2+O                                    3.30E+12    0.3        0.0
NH+NO<=>N2+OH                                  2.20E+13   -0.2        0.0
NNH+O<=>NH+NO                                  5.20E+11    0.4     -409.0
NH2+NO<=>N2+H2O                                2.80E+20   -2.7     1258.0
NH2+NO<=>NNH+OH                                2.29E+10    0.4     -814.0
NO+H(+M)<=>HNO(+M)                             1.50E+15   -0.4        0.0
       LOW/  0.24000E+15  0.20600E+00 -0.15500E+04 /
      TROE/  0.82000E+00  0.10000E-29  0.10000E+31  0.10000E+31 /
      N2/ 1.6/
HNO+H<=>H2+NO                                  4.50E+11    0.7      655.0
NH+OH<=>HNO+H                                  3.20E+14   -0.4      -46.0
NH+H2O<=>HNO+H2                                2.00E+13    0.0    13850.0
HNO+O<=>OH+NO                                  1.81E+13    0.0        0.0
HNO+OH<=>NO+H2O                                3.60E+13    0.0        0.0
NNH+NO<=>N2+HNO                                5.00E+13    0.0        0.0
H+NO+N2<=>HNO+N2                               4.00E+20   -1.8        0.0
N2O(+M)<=>N2+O(+M)                             1.30E+12    0.0    62570.0
      LOW/  0.40000E+15  0.00000E+00  0.56600E+05 /
      N2/  1.7/
      CO2/ 3.0/
      H2O/ 12.0/
N2O+H<=>N2+OH                                  3.30E+10    0.0     4729.0
N2O+H<=>N2+OH                                  4.40E+14    0.0    19254.0
NH+NO<=>N2O+H                                  2.90E+14   -0.4        0.0
NH+NO<=>N2O+H                                 -2.20E+13   -0.2        0.0
NNH+O<=>N2O+H                                  1.00E+14    0.0        0.0
NH2+NO<=>H2+N2O                                1.00E+13    0.0    33700.0
N2O+OH<=>HNO+NO                                1.20E-04    4.3    25080.0
N2O+OH<=>N2+HO2                                1.00E+14    0.0    30000.0
N2H2+NO<=>N2O+NH2                              3.00E+10    0.0        0.0
NO2(+M)<=>NO+O(+M)                             7.60E+18   -1.3    73245.0
       LOW/  0.24700E+29 -0.33700E+01  0.74756E+05 /
      TROE/  0.10000E+00  0.29510E+03  0.97270E+03  0.49816E+04 /
      N2O/ 1.5/
      H2O/ 4.4/
      N2/  1.0/
      CO2/ 2.3/
NO+O(+M)<=>NO2(+M)                             1.30E+15   -0.8        0.0
       LOW/ 0.47100E+25 -0.28700E+01  0.15510E+04 /
      TROE/ 0.10000E+00  0.29510E+03  0.97270E+03  0.46816E+04 /
NO2+H<=>NO+OH                                  1.30E+14    0.0      357.0
NO2+OH<=>HO2+NO                                1.81E+13    0.0     6673.0
NH+NO2<=>N2O+OH                                4.10E+12    0.0        0.0
NH+NO2<=>HNO+NO                                5.90E+12    0.0        0.0
NH2+NO2<=>N2O+H2O                              3.00E+14   -0.8      242.0
N2O+NO<=>NO2+N2                                5.30E+05    2.2    46280.0
HONO(+M)<=>OH+NO(+M)                           1.20E+19   -1.2    49667.0
       LOW/  0.30100E+31 -0.38000E+01  0.50322E+05 /
      TROE/  0.37000E+00  0.11980E+02  0.10000E+06 /
NO+OH(+M)<=>HONO(+M)                           1.99E+12   -0.1     -721.0
       LOW/  0.50800E+24 -0.25100E+01 -0.68000E+02 /
      TROE/  0.37000E+00  0.11980E+02  0.10000E+06 /
NO2+H2<=>HONO+H                                1.30E+04    2.8    29770.0
HONO+H<=>H2O+NO                                8.10E+06    1.9     3843.0
HONO+H<=>OH+HNO                                5.60E+10    0.9     4965.0
HONO+OH<=>H2O+NO2                              1.26E+10    1.0      135.0
NH+HONO<=>NH2+NO2                              1.00E+13    0.0        0.0
NH2+HONO<=>NH3+NO2                             7.10E+01    3.0    -4940.0
!HNO+NO2<=>HONO+NO                              4.40E+04    2.6     4040.0
HONO+HONO<=>NO+NO2+H2O                         3.50E-01    3.6    12140.0
NO2+OH(+M)<=>HNO3(+M)                          2.41E+13    0.0        0.0
       LOW/  0.64200E+33 -0.54900E+01  0.23490E+04 /
      TROE/  0.40000E+00  0.45070E+03  0.15840E+04 /
      N2O/  5.0/
      H2O/  9.0/
      N2/   1.0/
      HNO3/ 5.0/
      NH3/  5.0/
N2O4(+M)<=>NO2+NO2(+M)                         4.05E+18   -1.1    12840.0
      LOW/ 0.19600E+29 -0.38000E+01  0.12840E+05 /
CH3+NH2<=>CH4+NH                               2.80E+06    1.9     9205.0
CH3+NH2<=>CH2+NH3                              1.60E+06    1.9     7566.0
CH4+NH2<=>CH3+NH3                              1.50E+03    3.0     9940.0
CH2+NO<=>NH2+CO                                2.30E+16   -1.4     1331.0
N+CO2<=>NO+CO                                  3.00E+12    0.0    11300.0
NH+CO2<=>HNO+CO                                1.00E+13    0.0    14350.0
HNO+CH3<=>NO+CH4                               8.20E+05    1.9      480.0
HCO+NO<=>HNO+CO                                7.23E+12    0.0        0.0
CH3O+NO<=>HNO+CH2O                             7.50E+12    0.0     2017.0
CH3O+NO<=>HNO+CH2O                             2.50E+18   -2.6        0.0
CH2+NO2<=>CH2O+NO                              5.00E+13    0.0        0.0
NO2+CH3<=>NO+CH3O                              1.40E+13    0.0        0.0
CO+NO2<=>NO+CO2                                9.04E+13    0.0    33780.0
HCO+NO2<=>CO+NO+OH                             1.20E+23   -3.3     2355.0
HCO+NO2<=>H+CO2+NO                             8.39E+15   -0.8     1930.0
CH4+NO2<=>HONO+CH3                             6.50E+14    0.0    45800.0
HCO+NO2<=>CO+HONO                              1.24E+23   -3.3     2355.0
CH2O+NO2<=>HCO+HONO                            8.02E+02    2.8    13730.0
CH3O+NO2<=>CH2O+HONO                           6.00E+12    0.0     2285.0
CO+N2O<=>N2+CO2                                2.70E+11    0.0    20237.0
CN+O<=>CO+N                                    1.90E+12    0.5      723.0
CN+H2<=>HCN+H                                  3.60E+08    1.6     2999.0
CH4+CN<=>CH3+HCN                               8.60E+05    2.3      -32.0
HCN+O<=>NH+CO                                  3.50E+03    2.6     4980.0
HCN+OH<=>CN+H2O                                3.90E+06    1.8    10287.0
OH+HCN<=>NH2+CO                                7.83E-04    4.0     4000.0
CH2+NO<=>HCN+OH                                2.90E+14   -0.7      755.0
CH3+NO<=>HCN+H2O                               4.90E+08    0.5    12392.0
HCN<=>HNC                                      1.50E+23   -4.2    49428.0
HCN+M<=>HNC+M                                  1.60E+26   -3.2    54600.0
      H2O/ 7.0/
      CO2/ 2.0/
HNC+H<=>HCN+H                                  7.80E+13    0.0     3600.0
O+HNC<=>NH+CO                                  4.60E+12    0.0     2184.0
CH3NN+M<=>CH3+N2+M                             1.00E+11    0.0     5900.0
CH3NNH(+M)<=>CH3+NNH(+M)                       3.30E+16   -0.1    55000.0
      LOW/   0.18800E+32 -0.45500E+01  0.57500E+05 /
      TROE/  0.97000E+00  0.25059E+03  0.10000E+01  0.40100E+06 /
CH3NNH+O<=>CH3NN+OH                            9.60E+12    0.0        0.0
CH3NNH+OH<=>CH3NN+H2O                          3.92E+13    0.0        0.0
CH3NNH+CH3<=>CH4+CH3NN                         7.40E+13    0.0     5210.0
CH3NNH+NH2<=>NH3+CH3NN                         7.40E+13    0.0     5210.0
CH3NNH+NO2<=>CH3NN+HONO                        2.20E+11    0.0     5900.0
CH3NNH2(+M)<=>CH3NNH+H(+M)                     1.35E+08    1.7    47280.0
      LOW/  0.12200E+54 -0.10750E+02  0.53560E+05 /
CH3NNH2(+M)<=>CH2NNH2+H(+M)                    1.15E+09    1.2    50330.0
      LOW/   0.17100E+50 -0.99400E+01  0.56000E+05 /
      TROE/  0.00000E+00  0.33100E+03  0.10000E+02  0.47800E+05 /
CH3NNH2+O<=>CH3NNH+OH                          1.00E+08    2.0        0.0
CH3NNH2+OH<=>CH3NNH+H2O                        1.00E+08    2.0        0.0
CH3NNH2+NO2<=>CH3NNH+HONO                      1.00E+08    2.0        0.0
CH2NHNH2(+M)<=>CH2NNH2+H(+M)                   5.92E+11    0.3    36300.0
      LOW/   0.52500E+16 -0.72000E+00  0.34800E+05 /
      TROE/  0.00000E+00  0.49400E+03  0.10000E+02  0.28000E+06 /
CH3NHNH(+M)<=>CH3+N2H2(+M)                     4.64E+09    1.6    35620.0
      LOW/   0.34800E+49 -0.97000E+01  0.41200E+05 /
      TROE/  0.00000E+00  0.23300E+03  0.10000E+02  0.30800E+06 /
CH3NHNH(+M)<=>CH3NNH+H(+M)                     1.40E+07    2.0    44660.0
      LOW/   0.18200E+37 -0.65600E+01  0.48600E+05 /
      TROE/  0.00000E+00  0.13400E+03  0.10000E+02  0.51000E+05 /
CH3NHNH2(+M)<=>CH3NNH2+H(+M)                   4.66E+16   -0.2    77610.0
      LOW/   0.10900E+50 -0.95600E+01  0.83400E+05 /
      TROE/  0.00000E+00  0.16900E+03  0.13700E+02  0.40000E+05 /
CH3NHNH2(+M)<=>CH3NHNH+H(+M)                   4.69E+16   -0.2    80120.0
      LOW/   0.44400E+48 -0.91900E+01  0.85700E+05 /
      TROE/  0.00000E+00  0.14900E+03  0.42800E+02  0.42400E+05 /
CH3NHNH2(+M)<=>CH2NHNH2+H(+M)                  6.42E+16   -0.2    91800.0
      LOW/  0.18000E+44 -0.79800E+01  0.96700E+05 /
      TROE/ 0.98900E+00  0.10700E+03  0.60700E+02  0.60100E+05 /
CH3NHNH2(+M)<=>CH3NNH+H2(+M)                   9.70E+08    1.3   107500.0
      LOW/  0.10500E+69 -0.13840E+02  0.11500E+06 /
      TROE/ 0.00000E+00  0.50000E+06  0.10000E+02  0.41700E+05 /
CH3NHNH2(+M)<=>CH2NNH2+H2(+M)                  2.69E+09    1.2   105430.0
      LOW/   0.10500E+69 -0.13840E+02  0.11400E+03 /
      TROE/  0.19500E+00  0.47200E+04  0.10000E+01  0.10000E+01 /
CH3NHNH2(+M)<=>N2H2+CH4(+M)                    1.61E+10    1.1   108880.0
      LOW/   0.43820E+64 -0.12620E+02  0.11600E+06 /
      TROE/  0.00000E+00  0.97800E+03  0.10000E+02  0.41700E+05 /
CH3NHNH2+H<=>CH3NNH2+H2                        2.08E+07    1.8     4488.1
CH3NHNH2+H<=>CH3NHNH+H2                        1.68E+09    1.1     7289.0
CH3NHNH2+H<=>CH2NHNH2+H2                       7.88E+07    1.7    11162.0
CH3NHNH2+O<=>CH3NNH+H2O                        9.60E+12    0.0        0.0
CH3NHNH2+O<=>CH3NNH2+OH                        9.60E+12    0.0        0.0
CH3NHNH2+O<=>CH3NHNH+OH                        2.69E+12    0.0        0.0
CH3NHNH2+O<=>CH2NHNH2+OH                       1.30E+12    0.0        0.0
CH3NHNH2+OH<=>CH3NNH2+H2O                      3.92E+13    0.0        0.0
CH3NHNH2+OH<=>CH3NHNH+H2O                      1.10E+13    0.0        0.0
CH3NHNH2+OH<=>CH2NHNH2+H2O                     5.30E+12    0.0        0.0
CH3NHNH2+CH3<=>CH4+CH3NNH2                     4.79E+01    3.4     3578.3
CH3NHNH2+CH3<=>CH3NHNH+CH4                     3.21E+02    3.1     5748.1
CH3NHNH2+CH3<=>CH2NHNH2+CH4                    2.27E+01    3.5     7669.4
CH3NHNH2+NH<=>CH3NNH2+NH2                      1.45E+02    3.3     4435.5
CH3NHNH2+NH<=>CH3NHNH+NH2                      6.20E+02    3.1     7062.4
CH3NHNH2+NH<=>CH2NHNH2+NH2                     3.93E+01    3.6    10910.0
CH3NHNH2+NH2<=>CH3NNH2+NH3                     1.65E+02    3.0      870.1
CH3NHNH2+NH2<=>CH3NHNH+NH3                     5.98E+01    3.1     2110.2
CH3NHNH2+NH2<=>CH2NHNH2+NH3                    1.04E+00    3.6     1894.1
CH3NHNH2+NO2<=>CH3NNH2+HONO                    2.20E+11    0.0     5900.0
CH3NHNH2+NO2<=>CH3NHNH+HONO                    7.87E+10    0.0     8839.0
CH3NHNH2+NO2<=>CH2NHNH2+HONO                   1.39E+09    0.0     9803.0
!CH3NHNH2+NO<=>CH3NNH2+HNO                      1.85E+13    0.0     8524.0
!CH3NHNH2+NO<=>CH3NHNH+HNO                      1.24E+12    0.0     9605.0
!CH3NHNH2+NO<=>CH2NHNH2+HNO                     5.05E+12    0.0    11310.0
CN+OH<=>NCO+H                                  4.00E+13    0.0        0.0
HCN+O<=>NCO+H                                  1.40E+04    2.6     4980.0
NCO+H<=>NH+CO                                  5.20E+13    0.0        0.0
CN+CO2<=>NCO+CO                                3.67E+06    2.2    26900.0
CN+NO2<=>NCO+NO                                5.30E+15   -0.8      344.0
NCO+NO<=>N2+CO2                                1.50E+21   -2.7     1824.0
NCO+NO<=>N2O+CO                                4.00E+19   -2.2     1743.0
NCO+NO2<=>CO2+N2O                              3.00E+12    0.0     -707.0
HNCO(+M)<=>NH+CO(+M)                           6.00E+13    0.0    99800.0
      LOW/  0.21700E+29 -0.31000E+01  0.10190E+06 /
      TROE/ 0.46650E+00  0.10000E+04  0.10000E+07 /
      N2O/  5.0/
      H2O/  5.0/
      N2/   1.0/
      CO2/  1.6/
CH2+NO<=>HNCO+H                                3.10E+17   -1.4     1271.0
OH+HCN<=>HNCO+H                                1.98E-03    4.0     1000.0
OH+HNC<=>HNCO+H                                2.80E+13    0.0     3694.0
HNCO+H<=>NCO+H2                                9.00E+07    1.7    13900.0
HNCO+H<=>NH2+CO                                3.60E+04    2.5     2343.0
HNCO+O<=>CO2+NH                                9.80E+07    1.4     8524.0
HNCO+O<=>NCO+OH                                2.20E+06    2.1    11430.0
HNCO+OH<=>NCO+H2O                              3.60E+07    1.5     3594.0
NCO+CH4<=>HNCO+CH3                             9.80E+12    0.0     8122.0
CH2O+NCO<=>HNCO+HCO                            6.00E+12    0.0        0.0
HNCO+N<=>NH+NCO                                2.32E+19    0.0    52500.0
NCO+NH3<=>HNCO+NH2                             2.80E+04    2.5      983.0
NCO+HNO<=>HNCO+NO                              1.80E+13    0.0        0.0
CN+HNCO<=>HCN+NCO                              1.00E+13    0.0        0.0
CH3O+NO2(+M)<=>CH3ONO2(+M)                     1.20E+13    0.0        0.0
      LOW/  0.14000E+31 -0.45000E+01  0.00000E+00 /
N2O4(+M)=NO2+NO2(+M)                           4.05E18   -1.1   12840.
      LOW/ 1.96E28   -3.8   12800. /
END

