/*--------------------------------*- C++ -*----------------------------------*\
| =========                 |                                                 |
| \\      /  F ield         | OpenFOAM: The Open Source CFD Toolbox           |
|  \\    /   O peration     | Version:  2.1.x                                 |
|   \\  /    A nd           | Web:      www.OpenFOAM.org                      |
|    \\/     M anipulation  |                                                 |
\*---------------------------------------------------------------------------*/
FoamFile
{
    version     2.0;
    format      ascii;
    class       dictionary;
    object      blockMeshDict;
}
// * * * * * * * * * * * * * * * * * * * * * * * * * * * * * * * * * * * * * //

convertToMeters 0.01;

vertices
(
    (0 -1 0)
    (2 -1 0)
    (2 3 0)
    (0 3 0)
    (0 -1 0.1)
    (2 -1 0.1)
    (2 3 0.1)
    (0 3 0.1)
);

blocks
(
    hex (0 1 2 3 4 5 6 7) (160 320 1) simpleGrading (1 1 1)
);

edges
(
);

boundary
(
    atmosphere
    {
        type patch;
        faces
        (
            (4 7 3 0)
            (7 6 2 3)
            (5 4 0 1)
            (6 5 1 2)
        );
    }

    frontAndBack
    {
        type empty;
        faces
        (
            (3 2 1 0)
            (4 5 6 7)
        );
    }
    
    /*wall
    {
        type patch;
        faces
        (
            (6 5 1 2)
        );
    }*/
);

mergePatchPairs
(
);

// ************************************************************************* //
