/*--------------------------------*- C++ -*----------------------------------*\
| =========                 |                                                 |
| \\      /  F ield         | OpenFOAM: The Open Source CFD Toolbox           |
|  \\    /   O peration     | Version:  2.1.1                                 |
|   \\  /    A nd           | Web:      www.OpenFOAM.org                      |
|    \\/     M anipulation  |                                                 |
\*---------------------------------------------------------------------------*/
FoamFile
{
    version     2.0;
    format      ascii;
    class       dictionary;
    location    "system";
    object      fvSchemes;
}
// * * * * * * * * * * * * * * * * * * * * * * * * * * * * * * * * * * * * * //

ddtSchemes
{
    default         Euler;
}

gradSchemes
{
    default           Gauss linear;
    alphaVaporSmooth  extendedLeastSquares;
}

divSchemes
{
    // Turbulence
    div(rho*phi,k)          Gauss vanLeer;
    div(rho*phi,omega)      Gauss vanLeer;
    
    // Momentum
    div(rho*phi,U)                Gauss linearUpwindV grad(U);
    div((muEff*dev2(T(grad(U))))) Gauss linear;
    
    // Phase volume (VOF-SLIC)
    div(phi,alpha)          Gauss MUSCL01; //SuperBee; //vanLeer;
    div(phirb,alpha)        Gauss interfaceCompression;
    
    // Species mass fractions
    div(rho*phi*alpha,Yi)   Gauss limitedLinear 1;

    // Energy
    div(rho*phi,T)          Gauss limitedLinear 1;
    div(DgradY,T)           Gauss linear corrected;
    
    // Pressure/volumetric continuity
    div(phi,p_rgh)          Gauss limitedLinear 1;
    div(phi,p)              Gauss limitedLinear 1;
    div(phi,T)              Gauss limitedLinear 1;
}

laplacianSchemes
{
    default         Gauss linear corrected;
}

interpolationSchemes
{
    default         linear;
}

snGradSchemes
{
    default         corrected;
}

fluxRequired
{
    default         no;
    p_rgh;
    pcorr;
    "alpha(.*)";
}




// ************************************************************************* //
