/*--------------------------------*- C++ -*----------------------------------*\
| =========                 |                                                 |
| \\      /  F ield         | OpenFOAM: The Open Source CFD Toolbox           |
|  \\    /   O peration     | Version:  2.1.x                                 |
|   \\  /    A nd           | Web:      www.OpenFOAM.org                      |
|    \\/     M anipulation  |                                                 |
\*---------------------------------------------------------------------------*/
FoamFile
{
    version     2.0;
    format      ascii;
    class       volScalarField;
    location    "0";
    object      CH3NHNH2L;
}
// * * * * * * * * * * * * * * * * * * * * * * * * * * * * * * * * * * * * * //

dimensions      [0 0 0 0 0 0 0];

internalField   uniform 0.0;

boundaryField
{
    defaultFaces
    {
        type            zeroGradient;
    }
    
    atmosphere
    {
        type            inletOutlet;
        inletValue      uniform 0.0;
        value           uniform 0.0;
    }
    
    FuelInlet
    {
        type            inletOutlet;
        inletValue      uniform 1.0;
        value           uniform 1.0;
    }
    
    OxInlet
    {
        type            inletOutlet;
        inletValue      uniform 0.0;
        value           uniform 0.0;
    }
    
    walls
    {
        type            zeroGradient;
    }
    
}


// ************************************************************************* //
