/*--------------------------------*- C++ -*----------------------------------*\
| =========                 |                                                 |
| \\      /  F ield         | OpenFOAM: The Open Source CFD Toolbox           |
|  \\    /   O peration     | Version:  2.1.1                                 |
|   \\  /    A nd           | Web:      www.OpenFOAM.org                      |
|    \\/     M anipulation  |                                                 |
\*---------------------------------------------------------------------------*/
FoamFile
{
    version     2.0;
    format      ascii;
    class       volScalarField;
    object      p;
}
// * * * * * * * * * * * * * * * * * * * * * * * * * * * * * * * * * * * * * //

dimensions      [1 -1 -2 0 0 0 0];

internalField   uniform 0;

boundaryField
{
    atmosphere
    {
        type            totalPressure;
        p0              uniform 0;
        U               U;
        phi             phi;
        rho             rho;
        psi             none;
        gamma           1;
        value           uniform 0;
    }

    walls
    {
        type            zeroGradient;
    }
    
    FuelInlet
    {
        type            fixedValue;
        value           uniform 4.81e3; // to match LU-3/5-25-001
    }
    
    OxInlet
    {
        type            fixedValue;
        value           uniform 4.96e3; // to match LU-3/5-25-001
    }
    
    defaultFaces
    {
        type            empty;
    }
}

// ************************************************************************* //
