/*--------------------------------*- C++ -*----------------------------------*\
| =========                 |                                                 |
| \\      /  F ield         | OpenFOAM: The Open Source CFD Toolbox           |
|  \\    /   O peration     | Version:  2.1.0                                 |
|   \\  /    A nd           | Web:      www.OpenFOAM.org                      |
|    \\/     M anipulation  |                                                 |
\*---------------------------------------------------------------------------*/
FoamFile
{
    version     2.0;
    format      ascii;
    class       dictionary;
    object      blockMeshDict;
}
// * * * * * * * * * * * * * * * * * * * * * * * * * * * * * * * * * * * * * //

convertToMeters 0.01; //values here are in cm

vertices
(
    (-1.2 -1.2 -0.01)
    ( 1.2 -1.2 -0.01)
    ( 1.2  1.2 -0.01)
    (-1.2  1.2 -0.01)
    (-1.2 -1.2  0.01)
    ( 1.2 -1.2  0.01)
    ( 1.2  1.2  0.01)
    (-1.2  1.2  0.01)
    (-2 -2 -0.01)
    (-2 -2  0.01)
    ( 2 -2 -0.01)
    ( 2 -2  0.01)
    ( 2  2 -0.01)
    ( 2  2  0.01)
    (-2  2 -0.01)
    (-2  2  0.01)
);

blocks
(
    hex (0 1 2 3 4 5 6 7) (50 50 1) simpleGrading (1 1 1)
    hex (8 10 1 0 9 11 5 4) (50 20 1) simpleGrading (1 1 1)
    hex (10 12 2 1 11 13 6 5) (50 20 1) simpleGrading (1 1 1)
    hex (12 14 3 2 13 15 7 6) (50 20 1) simpleGrading (1 1 1)
    hex (14 8 0 3 15 9 4 7) (50 20 1) simpleGrading (1 1 1)
);

edges
(
    arc 8 10 (0 -2.828427 -0.01)
    arc 9 11 (0 -2.828427  0.01)
    arc 10 12 (2.828427 0 -0.01)
    arc 11 13 (2.828427 0  0.01)
    arc 12 14 (0 2.828427 -0.01)
    arc 13 15 (0 2.828427  0.01)
    arc 14 8 (-2.828427 0 -0.01)
    arc 15 9 (-2.828427 0  0.01)
);

boundary
(
    atmosphere
    {
        type patch;
        faces
        (
            (13 11 10 12)
            (11 9 8 10)
            (9 15 14 8)
            (15 13 12 14)
        );
    }
    
    frontAndBack
    {
        type symmetryPlane;
        faces
        (
            (1 0 3 2)
            (10 8 0 1)
            (8 14 3 0)
            (14 12 2 3)
            (12 10 1 2)
            (4 5 6 7)
            (9 11 5 4)
            (15 9 4 7)
            (13 15 7 6)
            (11 13 6 5)
        );
    }
);

mergePatchPairs
(
);

// ************************************************************************* //
