/*--------------------------------*- C++ -*----------------------------------*\
| =========                 |                                                 |
| \\      /  F ield         | OpenFOAM: The Open Source CFD Toolbox           |
|  \\    /   O peration     | Version:  2.1.0                                 |
|   \\  /    A nd           | Web:      www.OpenFOAM.org                      |
|    \\/     M anipulation  |                                                 |
\*---------------------------------------------------------------------------*/
FoamFile
{
    version     2.0;
    format      ascii;
    class       dictionary;
    object      blockMeshDict;
}
// * * * * * * * * * * * * * * * * * * * * * * * * * * * * * * * * * * * * * //

convertToMeters 0.01; //values here are in cm

vertices
(
    (0 0   0)
    (0 1 0)
    (3 1 0)
    (3 0   0)
    (0 0   0.1)
    (0 1 0.1)
    (3 1 0.1)
    (3 0   0.1)
);

blocks
(
    hex (0 3 2 1 4 7 6 5) (150 50 10) simpleGrading (1 1 1)
);

edges
(
);

boundary
(
    atmosphere
    {
        type patch;
        faces
        (
            (3 2 6 7)
            (1 5 6 2)
            (0 3 7 4)
            (5 1 0 4)
        );
    }
    
    sides
    {
        type symmetryPlane;
        faces
        (
            (0 1 2 3)
            (6 5 4 7)
        );
    }
);

mergePatchPairs
(
);

// ************************************************************************* //
