ELEMENTS
H C O N 
END

SPECIES
CH3NHNH2 CH3NNH2 CH3NNH CH3NN CH3O CH2O CH3ONO2
NO2 N2O4 HONO HNO3 HCO
H2O O2 NO O N2 CO CO2 OH H CH3
END

REACTIONS
CH3NHNH2+NO2<=>CH3NNH2+HONO                    2.20E+11    0.0     5900.0
CH3NNH2+NO2<=>CH3NNH+HONO                      1.00E+08    2.0        0.0
CH3NNH+NO2<=>CH3NN+HONO                        2.20E+11    0.0     5900.0
CH3NN+M<=>CH3+N2+M                             1.00E+11    0.0     5900.0
!CH3O+NO2(+M)<=>CH3ONO2(+M)                     1.20E+13    0.0        0.0
!      LOW/  0.14000E+31 -0.45000E+01  0.00000E+00 /
!N2O4(+M)=NO2+NO2(+M)                           4.05E18   -1.1   12840.
!      LOW/ 1.96E28   -3.8   12800. /
!CH3O+NO2<=>CH2O+HONO                           6.00E+12    0.0     2285.0
HNO3=>0.5H2O+NO2+0.25O2                        3.01E+18    0.0    31912.2
!NO2(+M)<=>NO+O(+M)                             7.60E+18   -1.3    73245.0
!       LOW/  0.24700E+29 -0.33700E+01  0.74756E+05 /
!      TROE/  0.10000E+00  0.29510E+03  0.97270E+03  0.49816E+04 /
!      H2O/ 4.4/
!      N2/  1.0/
!NO+O(+M)<=>NO2(+M)                             1.30E+15   -0.8        0.0
!       LOW/ 0.47100E+25 -0.28700E+01  0.15510E+04 /
!      TROE/ 0.10000E+00  0.29510E+03  0.97270E+03  0.46816E+04 /
!HONO(+M)<=>OH+NO(+M)                           1.20E+19   -1.2    49667.0
!       LOW/  0.30100E+31 -0.38000E+01  0.50322E+05 /
!      TROE/  0.37000E+00  0.11980E+02  0.10000E+06 /
!NO+OH(+M)<=>HONO(+M)                           1.99E+12   -0.1     -721.0
!       LOW/  0.50800E+24 -0.25100E+01 -0.68000E+02 /
!      TROE/  0.37000E+00  0.11980E+02  0.10000E+06 /
!CH2O+NO2<=>HCO+HONO                            8.02E+02    2.8    13730.0
!HCO+NO2<=>CO+NO+OH                             1.20E+23   -3.3     2355.0
!HCO+NO2<=>H+CO2+NO                             8.39E+15   -0.8     1930.0
!HCO+NO2<=>CO+HONO                              1.24E+23   -3.3     2355.0
END
