/*--------------------------------*- C++ -*----------------------------------*\
| =========                 |                                                 |
| \\      /  F ield         | OpenFOAM: The Open Source CFD Toolbox           |
|  \\    /   O peration     | Version:  2.1.x                                 |
|   \\  /    A nd           | Web:      www.OpenFOAM.org                      |
|    \\/     M anipulation  |                                                 |
\*---------------------------------------------------------------------------*/
FoamFile
{
    version     2.0;
    format      ascii;
    class       dictionary;
    location    "system";
    object      VOFSetFieldsDict;
}
// * * * * * * * * * * * * * * * * * * * * * * * * * * * * * * * * * * * * * //

defaultSpecies
(
    N2   1.0
);

vaporPhaseName   alphaVapor;
Udefault (0 0 0);
Tdefault 300;

shapes
(
    RFNAJet
    {
        alphaName alphaLiquid;
        
        shape    ellipsoid;
        
        ellipsoidCoeffs
        {
            center   (-7.59151e-3 -7.16405e-3 -0.25000e-3);
            radius   (0.005 0.005 0.005);
        }
        
        delVapor 3e-4;
        U        (0 0 0);
        T        300;
        
        liquidSpecies
        (
            HNO3L  0.85
            NO2L   0.15
        );
        
        vaporSpecies
        (
            HNO3   0.35
            NO2    0.65
        );
    }
    
    MMHJet
    {
        alphaName alphaLiquid;
        
        shape    ellipsoid;
        
        ellipsoidCoeffs
        {
            center   (7.59151e-3 -7.16405e-3 -0.25000e-3);
            radius   (0.005 0.005 0.005);
        }
        
        delVapor 3e-4;
        U        (0 0 0);
        T        300;
        
        liquidSpecies
        (
            CH3NHNH2L  1.0
        );
        
        vaporSpecies
        (
            CH3NHNH2   0.15
        );
    }

);


// ************************************************************************* //
