/*--------------------------------*- C++ -*----------------------------------*\
| =========                 |                                                 |
| \\      /  F ield         | OpenFOAM: The Open Source CFD Toolbox           |
|  \\    /   O peration     | Version:  2.1.x                                 |
|   \\  /    A nd           | Web:      www.OpenFOAM.org                      |
|    \\/     M anipulation  |                                                 |
\*---------------------------------------------------------------------------*/
FoamFile
{
    version     2.0;
    format      ascii;
    class       polyBoundaryMesh;
    location    "constant/polyMesh";
    object      boundary;
}
// * * * * * * * * * * * * * * * * * * * * * * * * * * * * * * * * * * * * * //

6
(
    wedge_pos
    {
        type            wedge;
        nFaces          68926;
        startFace       137434;
    }
    wedge_neg
    {
        type            wedge;
        nFaces          68926;
        startFace       206360;
    }
    walls
    {
        type            wall;
        nFaces          367;
        startFace       275286;
    }
    inflow
    {
        type            patch;
        nFaces          200;
        startFace       275653;
    }
    atmosphere
    {
        type            patch;
        nFaces          200;
        startFace       275853;
    }
    axis
    {
        type            empty;
        nFaces          0;
        startFace       276053;
    }
)

// ************************************************************************* //
